file 14098408 1546398360                                        
version 2
run General-0-20190101-21:04:29-17437
attr configname General
attr datetime 20190101-21:04:29
attr experiment General
attr inifile omnetpp.ini
attr iterationvars ""
attr iterationvarsf ""
attr measurement ""
attr network ManhattanSimulation.MCScenario
attr processid 17437
attr repetition 0
attr replication #0
attr resultdir results
attr runnumber 0
attr seedset 0
param **.debug false
param **.coreDebug false
param *.playgroundSizeX 2500m
param *.playgroundSizeY 2500m
param *.playgroundSizeZ 50m
param *.annotations.draw true
param *.manager.updateInterval 1s
param *.manager.host "\"localhost\""
param *.manager.port 9998
param *.manager.autoShutdown true
param *.manager.launchConfig "xmldoc(\"manhattan.launchd.xml\")"
param *.rsu[0].mobility.x 2000
param *.rsu[0].mobility.y 2000
param *.rsu[0].mobility.z 3
param *.rsu[*].applType "\"CNNApp.CNNAppRSU\""
param *.rsu[*].appl.headerLength "80 bit"
param *.rsu[*].appl.sendBeacons false
param *.rsu[*].appl.dataOnSch false
param *.rsu[*].appl.beaconInterval 1s
param *.rsu[*].appl.beaconUserPriority 7
param *.rsu[*].appl.dataUserPriority 5
param *.connectionManager.sendDirect true
param *.connectionManager.maxInterfDist 2600m
param *.connectionManager.drawMaxIntfDist false
param *.**.nic.mac1609_4.useServiceChannel false
param *.**.nic.mac1609_4.txPower 20mW
param *.**.nic.mac1609_4.bitrate 6Mbps
param *.**.nic.phy80211p.sensitivity -89dBm
param *.**.nic.phy80211p.useThermalNoise true
param *.**.nic.phy80211p.thermalNoise -110dBm
param *.**.nic.phy80211p.decider "xmldoc(\"config.xml\")"
param *.**.nic.phy80211p.analogueModels "xmldoc(\"config.xml\")"
param *.**.nic.phy80211p.usePropagationDelay true
param *.**.nic.phy80211p.antenna "xmldoc(\"antenna.xml\", \"/root/Antenna[@id='monopole']\")"
param *.node[*].applType "\"CNNApp.CNNAppCar\""
param *.node[*].appl.headerLength "80 bit"
param *.node[*].appl.sendBeacons false
param *.node[*].appl.dataOnSch false
param *.node[*].appl.beaconInterval 1s
param *.node[*].veinsmobilityType.debug true
param *.node[*].veinsmobility.x -1
param *.node[*].veinsmobility.y -1
param *.node[*].veinsmobility.z 1.895
param *.**.nic.mac1609_4.useServiceChannel true
param *.node[*].appl.dataOnSch true
param *.rsu[*].appl.dataOnSch true

vector 0 MCScenario.node[0].veinsmobility posx ETV
vector 1 MCScenario.node[0].veinsmobility posy ETV
vector 2 MCScenario.node[1].veinsmobility posx ETV
vector 3 MCScenario.node[1].veinsmobility posy ETV
vector 4 MCScenario.node[0].veinsmobility speed ETV
vector 5 MCScenario.node[2].veinsmobility posx ETV
vector 6 MCScenario.node[2].veinsmobility posy ETV
vector 7 MCScenario.node[0].veinsmobility acceleration ETV
vector 8 MCScenario.node[0].veinsmobility co2emission ETV
vector 9 MCScenario.node[1].veinsmobility speed ETV
vector 10 MCScenario.node[3].veinsmobility posx ETV
vector 11 MCScenario.node[3].veinsmobility posy ETV
vector 12 MCScenario.node[1].veinsmobility acceleration ETV
vector 13 MCScenario.node[1].veinsmobility co2emission ETV
vector 14 MCScenario.node[2].veinsmobility speed ETV
vector 15 MCScenario.node[4].veinsmobility posx ETV
vector 16 MCScenario.node[4].veinsmobility posy ETV
vector 17 MCScenario.node[2].veinsmobility acceleration ETV
vector 18 MCScenario.node[2].veinsmobility co2emission ETV
vector 19 MCScenario.node[3].veinsmobility speed ETV
vector 20 MCScenario.node[5].veinsmobility posx ETV
vector 21 MCScenario.node[5].veinsmobility posy ETV
vector 22 MCScenario.node[3].veinsmobility acceleration ETV
vector 23 MCScenario.node[3].veinsmobility co2emission ETV
vector 24 MCScenario.node[4].veinsmobility speed ETV
vector 25 MCScenario.node[6].veinsmobility posx ETV
vector 26 MCScenario.node[6].veinsmobility posy ETV
vector 27 MCScenario.node[4].veinsmobility acceleration ETV
vector 28 MCScenario.node[4].veinsmobility co2emission ETV
vector 29 MCScenario.node[5].veinsmobility speed ETV
vector 30 MCScenario.node[7].veinsmobility posx ETV
vector 31 MCScenario.node[7].veinsmobility posy ETV
vector 32 MCScenario.node[5].veinsmobility acceleration ETV
vector 33 MCScenario.node[5].veinsmobility co2emission ETV
vector 34 MCScenario.node[6].veinsmobility speed ETV
vector 35 MCScenario.node[8].veinsmobility posx ETV
vector 36 MCScenario.node[8].veinsmobility posy ETV
vector 37 MCScenario.node[6].veinsmobility acceleration ETV
vector 38 MCScenario.node[6].veinsmobility co2emission ETV
vector 39 MCScenario.node[7].veinsmobility speed ETV
vector 40 MCScenario.node[9].veinsmobility posx ETV
vector 41 MCScenario.node[9].veinsmobility posy ETV
vector 42 MCScenario.node[7].veinsmobility acceleration ETV
vector 43 MCScenario.node[7].veinsmobility co2emission ETV
vector 44 MCScenario.node[8].veinsmobility speed ETV
vector 45 MCScenario.node[10].veinsmobility posx ETV
vector 46 MCScenario.node[10].veinsmobility posy ETV
vector 47 MCScenario.node[8].veinsmobility acceleration ETV
vector 48 MCScenario.node[8].veinsmobility co2emission ETV
vector 49 MCScenario.node[9].veinsmobility speed ETV
vector 50 MCScenario.node[11].veinsmobility posx ETV
vector 51 MCScenario.node[11].veinsmobility posy ETV
vector 52 MCScenario.node[9].veinsmobility acceleration ETV
vector 53 MCScenario.node[9].veinsmobility co2emission ETV
vector 54 MCScenario.node[10].veinsmobility speed ETV
vector 55 MCScenario.node[12].veinsmobility posx ETV
vector 56 MCScenario.node[12].veinsmobility posy ETV
vector 57 MCScenario.node[10].veinsmobility acceleration ETV
vector 58 MCScenario.node[10].veinsmobility co2emission ETV
vector 59 MCScenario.node[11].veinsmobility speed ETV
vector 60 MCScenario.node[13].veinsmobility posx ETV
vector 61 MCScenario.node[13].veinsmobility posy ETV
vector 62 MCScenario.node[11].veinsmobility acceleration ETV
vector 63 MCScenario.node[11].veinsmobility co2emission ETV
vector 64 MCScenario.node[12].veinsmobility speed ETV
vector 65 MCScenario.node[14].veinsmobility posx ETV
vector 66 MCScenario.node[14].veinsmobility posy ETV
vector 67 MCScenario.node[12].veinsmobility acceleration ETV
vector 68 MCScenario.node[12].veinsmobility co2emission ETV
vector 69 MCScenario.node[13].veinsmobility speed ETV
vector 70 MCScenario.node[15].veinsmobility posx ETV
vector 71 MCScenario.node[15].veinsmobility posy ETV
vector 72 MCScenario.node[13].veinsmobility acceleration ETV
vector 73 MCScenario.node[13].veinsmobility co2emission ETV
vector 74 MCScenario.node[14].veinsmobility speed ETV
vector 75 MCScenario.node[16].veinsmobility posx ETV
vector 76 MCScenario.node[16].veinsmobility posy ETV
vector 77 MCScenario.node[14].veinsmobility acceleration ETV
vector 78 MCScenario.node[14].veinsmobility co2emission ETV
vector 79 MCScenario.node[15].veinsmobility speed ETV
vector 80 MCScenario.node[17].veinsmobility posx ETV
vector 81 MCScenario.node[17].veinsmobility posy ETV
vector 82 MCScenario.node[15].veinsmobility acceleration ETV
vector 83 MCScenario.node[15].veinsmobility co2emission ETV
vector 84 MCScenario.node[16].veinsmobility speed ETV
vector 85 MCScenario.node[18].veinsmobility posx ETV
vector 86 MCScenario.node[18].veinsmobility posy ETV
vector 87 MCScenario.node[16].veinsmobility acceleration ETV
vector 88 MCScenario.node[16].veinsmobility co2emission ETV
vector 89 MCScenario.node[17].veinsmobility speed ETV
vector 90 MCScenario.node[19].veinsmobility posx ETV
vector 91 MCScenario.node[19].veinsmobility posy ETV
vector 92 MCScenario.node[17].veinsmobility acceleration ETV
vector 93 MCScenario.node[17].veinsmobility co2emission ETV
vector 94 MCScenario.node[18].veinsmobility speed ETV
vector 95 MCScenario.node[20].veinsmobility posx ETV
vector 96 MCScenario.node[20].veinsmobility posy ETV
vector 97 MCScenario.node[18].veinsmobility acceleration ETV
vector 98 MCScenario.node[18].veinsmobility co2emission ETV
vector 99 MCScenario.node[19].veinsmobility speed ETV
vector 100 MCScenario.node[21].veinsmobility posx ETV
vector 101 MCScenario.node[21].veinsmobility posy ETV
vector 102 MCScenario.node[19].veinsmobility acceleration ETV
vector 103 MCScenario.node[19].veinsmobility co2emission ETV
vector 104 MCScenario.node[20].veinsmobility speed ETV
vector 105 MCScenario.node[22].veinsmobility posx ETV
vector 106 MCScenario.node[22].veinsmobility posy ETV
vector 107 MCScenario.node[20].veinsmobility acceleration ETV
vector 108 MCScenario.node[20].veinsmobility co2emission ETV
vector 109 MCScenario.node[21].veinsmobility speed ETV
vector 110 MCScenario.node[23].veinsmobility posx ETV
vector 111 MCScenario.node[23].veinsmobility posy ETV
vector 112 MCScenario.node[21].veinsmobility acceleration ETV
vector 113 MCScenario.node[21].veinsmobility co2emission ETV
vector 114 MCScenario.node[22].veinsmobility speed ETV
vector 115 MCScenario.node[24].veinsmobility posx ETV
vector 116 MCScenario.node[24].veinsmobility posy ETV
vector 117 MCScenario.node[22].veinsmobility acceleration ETV
vector 118 MCScenario.node[22].veinsmobility co2emission ETV
vector 119 MCScenario.node[23].veinsmobility speed ETV
vector 120 MCScenario.node[25].veinsmobility posx ETV
vector 121 MCScenario.node[25].veinsmobility posy ETV
vector 122 MCScenario.node[23].veinsmobility acceleration ETV
vector 123 MCScenario.node[23].veinsmobility co2emission ETV
vector 124 MCScenario.node[24].veinsmobility speed ETV
vector 125 MCScenario.node[26].veinsmobility posx ETV
vector 126 MCScenario.node[26].veinsmobility posy ETV
vector 127 MCScenario.node[24].veinsmobility acceleration ETV
vector 128 MCScenario.node[24].veinsmobility co2emission ETV
vector 129 MCScenario.node[25].veinsmobility speed ETV
vector 130 MCScenario.node[27].veinsmobility posx ETV
vector 131 MCScenario.node[27].veinsmobility posy ETV
vector 132 MCScenario.node[25].veinsmobility acceleration ETV
vector 133 MCScenario.node[25].veinsmobility co2emission ETV
vector 134 MCScenario.node[26].veinsmobility speed ETV
vector 135 MCScenario.node[28].veinsmobility posx ETV
vector 136 MCScenario.node[28].veinsmobility posy ETV
vector 137 MCScenario.node[26].veinsmobility acceleration ETV
vector 138 MCScenario.node[26].veinsmobility co2emission ETV
vector 139 MCScenario.node[27].veinsmobility speed ETV
63	10084 389 15 30 14 29 16 0.973 8.9939804570048 53.729775457427 243.46274289928
62	10473 413 15 30 14 29 16 -0.31231690819841 2.3181312268833 12.200581132504 22.359302147048
59	10886 420 14 30 13 29 17 1.426621987205 13.627203119709 180.21889221959 2163.7838583024
51	11306 306 13 30 12 29 18 1823.35 1823.35 32820.3 59842894.005
50	11612 431 13 30 12 29 18 48.558310900116 215.15 2701.0361410381 461663.07427141
vector 140 MCScenario.node[29].veinsmobility posx ETV
vector 141 MCScenario.node[29].veinsmobility posy ETV
vector 142 MCScenario.node[27].veinsmobility acceleration ETV
vector 143 MCScenario.node[27].veinsmobility co2emission ETV
vector 144 MCScenario.node[28].veinsmobility speed ETV
vector 145 MCScenario.node[30].veinsmobility posx ETV
vector 146 MCScenario.node[30].veinsmobility posy ETV
vector 147 MCScenario.node[28].veinsmobility acceleration ETV
vector 148 MCScenario.node[28].veinsmobility co2emission ETV
vector 149 MCScenario.node[29].veinsmobility speed ETV
vector 150 MCScenario.node[31].veinsmobility posx ETV
vector 151 MCScenario.node[31].veinsmobility posy ETV
vector 152 MCScenario.node[29].veinsmobility acceleration ETV
vector 153 MCScenario.node[29].veinsmobility co2emission ETV
vector 154 MCScenario.node[30].veinsmobility speed ETV
vector 155 MCScenario.node[32].veinsmobility posx ETV
vector 156 MCScenario.node[32].veinsmobility posy ETV
vector 157 MCScenario.node[30].veinsmobility acceleration ETV
vector 158 MCScenario.node[30].veinsmobility co2emission ETV
vector 159 MCScenario.node[31].veinsmobility speed ETV
vector 160 MCScenario.node[33].veinsmobility posx ETV
vector 161 MCScenario.node[33].veinsmobility posy ETV
vector 162 MCScenario.node[31].veinsmobility acceleration ETV
vector 163 MCScenario.node[31].veinsmobility co2emission ETV
vector 164 MCScenario.node[32].veinsmobility speed ETV
vector 165 MCScenario.node[34].veinsmobility posx ETV
vector 166 MCScenario.node[34].veinsmobility posy ETV
vector 167 MCScenario.node[32].veinsmobility acceleration ETV
vector 168 MCScenario.node[32].veinsmobility co2emission ETV
vector 169 MCScenario.node[33].veinsmobility speed ETV
vector 170 MCScenario.node[35].veinsmobility posx ETV
vector 171 MCScenario.node[35].veinsmobility posy ETV
vector 172 MCScenario.node[33].veinsmobility acceleration ETV
vector 173 MCScenario.node[33].veinsmobility co2emission ETV
vector 174 MCScenario.node[34].veinsmobility speed ETV
vector 175 MCScenario.node[36].veinsmobility posx ETV
vector 176 MCScenario.node[36].veinsmobility posy ETV
vector 177 MCScenario.node[34].veinsmobility acceleration ETV
vector 178 MCScenario.node[34].veinsmobility co2emission ETV
vector 179 MCScenario.node[35].veinsmobility speed ETV
vector 180 MCScenario.node[37].veinsmobility posx ETV
vector 181 MCScenario.node[37].veinsmobility posy ETV
vector 182 MCScenario.node[35].veinsmobility acceleration ETV
vector 183 MCScenario.node[35].veinsmobility co2emission ETV
vector 184 MCScenario.node[36].veinsmobility speed ETV
vector 185 MCScenario.node[38].veinsmobility posx ETV
vector 186 MCScenario.node[38].veinsmobility posy ETV
vector 187 MCScenario.node[36].veinsmobility acceleration ETV
vector 188 MCScenario.node[36].veinsmobility co2emission ETV
vector 189 MCScenario.node[37].veinsmobility speed ETV
vector 190 MCScenario.node[39].veinsmobility posx ETV
vector 191 MCScenario.node[39].veinsmobility posy ETV
vector 192 MCScenario.node[37].veinsmobility acceleration ETV
vector 193 MCScenario.node[37].veinsmobility co2emission ETV
vector 194 MCScenario.node[38].veinsmobility speed ETV
vector 195 MCScenario.node[40].veinsmobility posx ETV
vector 196 MCScenario.node[40].veinsmobility posy ETV
vector 197 MCScenario.node[38].veinsmobility acceleration ETV
vector 198 MCScenario.node[38].veinsmobility co2emission ETV
vector 199 MCScenario.node[39].veinsmobility speed ETV
vector 200 MCScenario.node[39].veinsmobility acceleration ETV
vector 201 MCScenario.node[39].veinsmobility co2emission ETV
vector 202 MCScenario.node[40].veinsmobility speed ETV
vector 203 MCScenario.node[41].veinsmobility posx ETV
vector 204 MCScenario.node[41].veinsmobility posy ETV
vector 205 MCScenario.node[40].veinsmobility acceleration ETV
vector 206 MCScenario.node[40].veinsmobility co2emission ETV
vector 207 MCScenario.node[42].veinsmobility posx ETV
vector 208 MCScenario.node[42].veinsmobility posy ETV
vector 209 MCScenario.node[43].veinsmobility posx ETV
vector 210 MCScenario.node[43].veinsmobility posy ETV
vector 211 MCScenario.node[41].veinsmobility speed ETV
vector 212 MCScenario.node[41].veinsmobility acceleration ETV
vector 213 MCScenario.node[41].veinsmobility co2emission ETV
vector 214 MCScenario.node[42].veinsmobility speed ETV
vector 215 MCScenario.node[43].veinsmobility speed ETV
vector 216 MCScenario.node[44].veinsmobility posx ETV
vector 217 MCScenario.node[44].veinsmobility posy ETV
vector 218 MCScenario.node[42].veinsmobility acceleration ETV
vector 219 MCScenario.node[42].veinsmobility co2emission ETV
vector 220 MCScenario.node[43].veinsmobility acceleration ETV
vector 221 MCScenario.node[43].veinsmobility co2emission ETV
vector 222 MCScenario.node[45].veinsmobility posx ETV
vector 223 MCScenario.node[45].veinsmobility posy ETV
vector 224 MCScenario.node[46].veinsmobility posx ETV
vector 225 MCScenario.node[46].veinsmobility posy ETV
vector 226 MCScenario.node[44].veinsmobility speed ETV
vector 227 MCScenario.node[47].veinsmobility posx ETV
vector 228 MCScenario.node[47].veinsmobility posy ETV
vector 229 MCScenario.node[44].veinsmobility acceleration ETV
vector 230 MCScenario.node[44].veinsmobility co2emission ETV
vector 231 MCScenario.node[45].veinsmobility speed ETV
vector 232 MCScenario.node[46].veinsmobility speed ETV
vector 233 MCScenario.node[48].veinsmobility posx ETV
vector 234 MCScenario.node[48].veinsmobility posy ETV
vector 235 MCScenario.node[45].veinsmobility acceleration ETV
vector 236 MCScenario.node[45].veinsmobility co2emission ETV
vector 237 MCScenario.node[46].veinsmobility acceleration ETV
vector 238 MCScenario.node[46].veinsmobility co2emission ETV
vector 239 MCScenario.node[47].veinsmobility speed ETV
vector 240 MCScenario.node[49].veinsmobility posx ETV
vector 241 MCScenario.node[49].veinsmobility posy ETV
vector 242 MCScenario.node[47].veinsmobility acceleration ETV
vector 243 MCScenario.node[47].veinsmobility co2emission ETV
vector 244 MCScenario.node[48].veinsmobility speed ETV
vector 245 MCScenario.node[50].veinsmobility posx ETV
vector 246 MCScenario.node[50].veinsmobility posy ETV
vector 247 MCScenario.node[48].veinsmobility acceleration ETV
vector 248 MCScenario.node[48].veinsmobility co2emission ETV
vector 249 MCScenario.node[49].veinsmobility speed ETV
vector 250 MCScenario.node[51].veinsmobility posx ETV
vector 251 MCScenario.node[51].veinsmobility posy ETV
vector 252 MCScenario.node[49].veinsmobility acceleration ETV
vector 253 MCScenario.node[49].veinsmobility co2emission ETV
vector 254 MCScenario.node[50].veinsmobility speed ETV
vector 255 MCScenario.node[50].veinsmobility acceleration ETV
vector 256 MCScenario.node[50].veinsmobility co2emission ETV
vector 257 MCScenario.node[51].veinsmobility speed ETV
vector 258 MCScenario.node[52].veinsmobility posx ETV
vector 259 MCScenario.node[52].veinsmobility posy ETV
vector 260 MCScenario.node[51].veinsmobility acceleration ETV
vector 261 MCScenario.node[51].veinsmobility co2emission ETV
vector 262 MCScenario.node[53].veinsmobility posx ETV
vector 263 MCScenario.node[53].veinsmobility posy ETV
vector 264 MCScenario.node[54].veinsmobility posx ETV
vector 265 MCScenario.node[54].veinsmobility posy ETV
vector 266 MCScenario.node[52].veinsmobility speed ETV
vector 267 MCScenario.node[55].veinsmobility posx ETV
vector 268 MCScenario.node[55].veinsmobility posy ETV
vector 269 MCScenario.node[52].veinsmobility acceleration ETV
vector 270 MCScenario.node[52].veinsmobility co2emission ETV
vector 271 MCScenario.node[53].veinsmobility speed ETV
vector 272 MCScenario.node[54].veinsmobility speed ETV
vector 273 MCScenario.node[56].veinsmobility posx ETV
vector 274 MCScenario.node[56].veinsmobility posy ETV
vector 275 MCScenario.node[53].veinsmobility acceleration ETV
vector 276 MCScenario.node[53].veinsmobility co2emission ETV
vector 277 MCScenario.node[54].veinsmobility acceleration ETV
vector 278 MCScenario.node[54].veinsmobility co2emission ETV
vector 279 MCScenario.node[55].veinsmobility speed ETV
vector 280 MCScenario.node[57].veinsmobility posx ETV
vector 281 MCScenario.node[57].veinsmobility posy ETV
vector 282 MCScenario.node[55].veinsmobility acceleration ETV
vector 283 MCScenario.node[55].veinsmobility co2emission ETV
vector 284 MCScenario.node[56].veinsmobility speed ETV
vector 285 MCScenario.node[58].veinsmobility posx ETV
vector 286 MCScenario.node[58].veinsmobility posy ETV
vector 287 MCScenario.node[56].veinsmobility acceleration ETV
vector 288 MCScenario.node[56].veinsmobility co2emission ETV
vector 289 MCScenario.node[57].veinsmobility speed ETV
vector 290 MCScenario.node[59].veinsmobility posx ETV
vector 291 MCScenario.node[59].veinsmobility posy ETV
vector 292 MCScenario.node[57].veinsmobility acceleration ETV
vector 293 MCScenario.node[57].veinsmobility co2emission ETV
vector 294 MCScenario.node[58].veinsmobility speed ETV
vector 295 MCScenario.node[60].veinsmobility posx ETV
vector 296 MCScenario.node[60].veinsmobility posy ETV
vector 297 MCScenario.node[58].veinsmobility acceleration ETV
vector 298 MCScenario.node[58].veinsmobility co2emission ETV
vector 299 MCScenario.node[59].veinsmobility speed ETV
vector 300 MCScenario.node[61].veinsmobility posx ETV
vector 301 MCScenario.node[61].veinsmobility posy ETV
vector 302 MCScenario.node[59].veinsmobility acceleration ETV
vector 303 MCScenario.node[59].veinsmobility co2emission ETV
vector 304 MCScenario.node[60].veinsmobility speed ETV
vector 305 MCScenario.node[62].veinsmobility posx ETV
vector 306 MCScenario.node[62].veinsmobility posy ETV
vector 307 MCScenario.node[60].veinsmobility acceleration ETV
vector 308 MCScenario.node[60].veinsmobility co2emission ETV
vector 309 MCScenario.node[61].veinsmobility speed ETV
vector 310 MCScenario.node[63].veinsmobility posx ETV
vector 311 MCScenario.node[63].veinsmobility posy ETV
vector 312 MCScenario.node[61].veinsmobility acceleration ETV
vector 313 MCScenario.node[61].veinsmobility co2emission ETV
vector 314 MCScenario.node[62].veinsmobility speed ETV
vector 315 MCScenario.node[64].veinsmobility posx ETV
vector 316 MCScenario.node[64].veinsmobility posy ETV
vector 317 MCScenario.node[62].veinsmobility acceleration ETV
vector 318 MCScenario.node[62].veinsmobility co2emission ETV
vector 319 MCScenario.node[63].veinsmobility speed ETV
vector 320 MCScenario.node[65].veinsmobility posx ETV
vector 321 MCScenario.node[65].veinsmobility posy ETV
vector 322 MCScenario.node[63].veinsmobility acceleration ETV
vector 323 MCScenario.node[63].veinsmobility co2emission ETV
vector 324 MCScenario.node[64].veinsmobility speed ETV
vector 325 MCScenario.node[66].veinsmobility posx ETV
vector 326 MCScenario.node[66].veinsmobility posy ETV
vector 327 MCScenario.node[64].veinsmobility acceleration ETV
vector 328 MCScenario.node[64].veinsmobility co2emission ETV
vector 329 MCScenario.node[65].veinsmobility speed ETV
vector 330 MCScenario.node[67].veinsmobility posx ETV
vector 331 MCScenario.node[67].veinsmobility posy ETV
vector 332 MCScenario.node[65].veinsmobility acceleration ETV
vector 333 MCScenario.node[65].veinsmobility co2emission ETV
vector 334 MCScenario.node[66].veinsmobility speed ETV
vector 335 MCScenario.node[68].veinsmobility posx ETV
vector 336 MCScenario.node[68].veinsmobility posy ETV
vector 337 MCScenario.node[66].veinsmobility acceleration ETV
vector 338 MCScenario.node[66].veinsmobility co2emission ETV
vector 339 MCScenario.node[67].veinsmobility speed ETV
vector 340 MCScenario.node[69].veinsmobility posx ETV
vector 341 MCScenario.node[69].veinsmobility posy ETV
vector 342 MCScenario.node[67].veinsmobility acceleration ETV
vector 343 MCScenario.node[67].veinsmobility co2emission ETV
vector 344 MCScenario.node[68].veinsmobility speed ETV
vector 345 MCScenario.node[68].veinsmobility acceleration ETV
vector 346 MCScenario.node[68].veinsmobility co2emission ETV
vector 347 MCScenario.node[69].veinsmobility speed ETV
128	23947 1018 28 72 27 71 45 0.973 6.4956154665264 126.80213388129 496.72727783893
127	24965 1224 28 72 27 71 45 -0.98805803311989 2.3777174293995 11.397299470613 35.962598419303
124	26189 1191 27 72 26 71 46 1.6613277133089 13.897315978981 572.7732140372 7424.6837227376
116	27380 1202 26 72 25 71 47 234.85 794.56458685328 23086.465489765 12786336.493569
115	28582 799 26 72 25 71 47 823.35 823.35 38697.45 31861545.4575
vector 348 MCScenario.node[69].veinsmobility acceleration ETV
vector 349 MCScenario.node[69].veinsmobility co2emission ETV
vector 350 MCScenario.node[70].veinsmobility posx ETV
vector 351 MCScenario.node[70].veinsmobility posy ETV
vector 352 MCScenario.node[71].veinsmobility posx ETV
vector 353 MCScenario.node[71].veinsmobility posy ETV
vector 354 MCScenario.node[72].veinsmobility posx ETV
vector 355 MCScenario.node[72].veinsmobility posy ETV
vector 356 MCScenario.node[73].veinsmobility posx ETV
vector 357 MCScenario.node[73].veinsmobility posy ETV
vector 358 MCScenario.node[70].veinsmobility speed ETV
vector 359 MCScenario.node[71].veinsmobility speed ETV
vector 360 MCScenario.node[74].veinsmobility posx ETV
vector 361 MCScenario.node[74].veinsmobility posy ETV
vector 362 MCScenario.node[70].veinsmobility acceleration ETV
vector 363 MCScenario.node[70].veinsmobility co2emission ETV
vector 364 MCScenario.node[71].veinsmobility acceleration ETV
vector 365 MCScenario.node[71].veinsmobility co2emission ETV
vector 366 MCScenario.node[72].veinsmobility speed ETV
vector 367 MCScenario.node[73].veinsmobility speed ETV
vector 368 MCScenario.node[75].veinsmobility posx ETV
vector 369 MCScenario.node[75].veinsmobility posy ETV
vector 370 MCScenario.node[72].veinsmobility acceleration ETV
vector 371 MCScenario.node[72].veinsmobility co2emission ETV
vector 372 MCScenario.node[73].veinsmobility acceleration ETV
vector 373 MCScenario.node[73].veinsmobility co2emission ETV
vector 374 MCScenario.node[74].veinsmobility speed ETV
vector 375 MCScenario.node[76].veinsmobility posx ETV
vector 376 MCScenario.node[76].veinsmobility posy ETV
vector 377 MCScenario.node[74].veinsmobility acceleration ETV
vector 378 MCScenario.node[74].veinsmobility co2emission ETV
vector 379 MCScenario.node[75].veinsmobility speed ETV
vector 380 MCScenario.node[75].veinsmobility acceleration ETV
vector 381 MCScenario.node[75].veinsmobility co2emission ETV
vector 382 MCScenario.node[76].veinsmobility speed ETV
vector 383 MCScenario.node[77].veinsmobility posx ETV
vector 384 MCScenario.node[77].veinsmobility posy ETV
vector 385 MCScenario.node[76].veinsmobility acceleration ETV
vector 386 MCScenario.node[76].veinsmobility co2emission ETV
318	31614 359 66 80 65 79 15 0.973 8.1571974076823 56.290972625423 277.48851431259
317	31973 403 66 80 65 79 15 -0.88963357934263 2.0648998257937 11.666709577222 24.979637921642
314	32376 414 65 80 64 79 16 2.0347253717016 13.788467015512 173.95194898953 2106.3039914052
306	32790 426 64 80 63 79 17 1054.8994859594 1215.15 19576.572396972 22592850.212842
305	33216 289 64 80 63 79 17 226.65 226.65 3853.05 873293.7825
vector 387 MCScenario.node[78].veinsmobility posx ETV
vector 388 MCScenario.node[78].veinsmobility posy ETV
vector 389 MCScenario.node[77].veinsmobility speed ETV
vector 390 MCScenario.node[79].veinsmobility posx ETV
vector 391 MCScenario.node[79].veinsmobility posy ETV
vector 392 MCScenario.node[77].veinsmobility acceleration ETV
vector 393 MCScenario.node[77].veinsmobility co2emission ETV
vector 394 MCScenario.node[78].veinsmobility speed ETV
vector 395 MCScenario.node[80].veinsmobility posx ETV
vector 396 MCScenario.node[80].veinsmobility posy ETV
vector 397 MCScenario.node[81].veinsmobility posx ETV
vector 398 MCScenario.node[81].veinsmobility posy ETV
vector 399 MCScenario.node[78].veinsmobility acceleration ETV
vector 400 MCScenario.node[78].veinsmobility co2emission ETV
vector 401 MCScenario.node[79].veinsmobility speed ETV
vector 402 MCScenario.node[79].veinsmobility acceleration ETV
vector 403 MCScenario.node[79].veinsmobility co2emission ETV
vector 404 MCScenario.node[80].veinsmobility speed ETV
vector 405 MCScenario.node[81].veinsmobility speed ETV
vector 406 MCScenario.node[82].veinsmobility posx ETV
vector 407 MCScenario.node[82].veinsmobility posy ETV
vector 408 MCScenario.node[80].veinsmobility acceleration ETV
vector 409 MCScenario.node[80].veinsmobility co2emission ETV
vector 410 MCScenario.node[81].veinsmobility acceleration ETV
vector 411 MCScenario.node[81].veinsmobility co2emission ETV
vector 412 MCScenario.node[83].veinsmobility posx ETV
vector 413 MCScenario.node[83].veinsmobility posy ETV
vector 414 MCScenario.node[84].veinsmobility posx ETV
vector 415 MCScenario.node[84].veinsmobility posy ETV
vector 416 MCScenario.node[82].veinsmobility speed ETV
vector 417 MCScenario.node[85].veinsmobility posx ETV
vector 418 MCScenario.node[85].veinsmobility posy ETV
vector 419 MCScenario.node[82].veinsmobility acceleration ETV
vector 420 MCScenario.node[82].veinsmobility co2emission ETV
vector 421 MCScenario.node[83].veinsmobility speed ETV
vector 422 MCScenario.node[84].veinsmobility speed ETV
vector 423 MCScenario.node[86].veinsmobility posx ETV
vector 424 MCScenario.node[86].veinsmobility posy ETV
vector 425 MCScenario.node[83].veinsmobility acceleration ETV
vector 426 MCScenario.node[83].veinsmobility co2emission ETV
vector 427 MCScenario.node[84].veinsmobility acceleration ETV
vector 428 MCScenario.node[84].veinsmobility co2emission ETV
vector 429 MCScenario.node[85].veinsmobility speed ETV
vector 430 MCScenario.node[87].veinsmobility posx ETV
vector 431 MCScenario.node[87].veinsmobility posy ETV
vector 432 MCScenario.node[85].veinsmobility acceleration ETV
vector 433 MCScenario.node[85].veinsmobility co2emission ETV
vector 434 MCScenario.node[86].veinsmobility speed ETV
vector 435 MCScenario.node[86].veinsmobility acceleration ETV
vector 436 MCScenario.node[86].veinsmobility co2emission ETV
vector 437 MCScenario.node[87].veinsmobility speed ETV
vector 438 MCScenario.node[88].veinsmobility posx ETV
vector 439 MCScenario.node[88].veinsmobility posy ETV
vector 440 MCScenario.node[87].veinsmobility acceleration ETV
vector 441 MCScenario.node[87].veinsmobility co2emission ETV
vector 442 MCScenario.node[89].veinsmobility posx ETV
vector 443 MCScenario.node[89].veinsmobility posy ETV
vector 444 MCScenario.node[88].veinsmobility speed ETV
vector 445 MCScenario.node[90].veinsmobility posx ETV
vector 446 MCScenario.node[90].veinsmobility posy ETV
vector 447 MCScenario.node[88].veinsmobility acceleration ETV
vector 448 MCScenario.node[88].veinsmobility co2emission ETV
vector 449 MCScenario.node[89].veinsmobility speed ETV
vector 450 MCScenario.node[91].veinsmobility posx ETV
vector 451 MCScenario.node[91].veinsmobility posy ETV
vector 452 MCScenario.node[89].veinsmobility acceleration ETV
vector 453 MCScenario.node[89].veinsmobility co2emission ETV
vector 454 MCScenario.node[90].veinsmobility speed ETV
vector 455 MCScenario.node[92].veinsmobility posx ETV
vector 456 MCScenario.node[92].veinsmobility posy ETV
vector 457 MCScenario.node[90].veinsmobility acceleration ETV
vector 458 MCScenario.node[90].veinsmobility co2emission ETV
vector 459 MCScenario.node[91].veinsmobility speed ETV
vector 460 MCScenario.node[93].veinsmobility posx ETV
vector 461 MCScenario.node[93].veinsmobility posy ETV
vector 462 MCScenario.node[94].veinsmobility posx ETV
vector 463 MCScenario.node[94].veinsmobility posy ETV
vector 464 MCScenario.node[91].veinsmobility acceleration ETV
vector 465 MCScenario.node[91].veinsmobility co2emission ETV
vector 466 MCScenario.node[92].veinsmobility speed ETV
221	38066 1155 47 96 46 95 50 0.973 8.4975546578689 160.44332304031 728.91342654627
220	39221 1339 47 96 46 95 50 -4.5 2.5498755852226 11.22168950066 119.02018753032
215	40560 1319 46 96 45 95 51 2.1465825429419 13.85717091721 575.1380988791 6963.7730757767
210	41879 1053 45 96 44 95 52 1449.5201731645 1626.65 83252.862759519 133409265.12685
209	42932 1219 45 96 44 95 52 1030.8843064278 1226.65 60289.819427185 70142434.179003
vector 467 MCScenario.node[95].veinsmobility posx ETV
vector 468 MCScenario.node[95].veinsmobility posy ETV
vector 469 MCScenario.node[92].veinsmobility acceleration ETV
vector 470 MCScenario.node[92].veinsmobility co2emission ETV
vector 471 MCScenario.node[93].veinsmobility speed ETV
vector 472 MCScenario.node[94].veinsmobility speed ETV
vector 473 MCScenario.node[96].veinsmobility posx ETV
vector 474 MCScenario.node[96].veinsmobility posy ETV
vector 475 MCScenario.node[93].veinsmobility acceleration ETV
vector 476 MCScenario.node[93].veinsmobility co2emission ETV
vector 477 MCScenario.node[94].veinsmobility acceleration ETV
vector 478 MCScenario.node[94].veinsmobility co2emission ETV
vector 479 MCScenario.node[95].veinsmobility speed ETV
vector 480 MCScenario.node[97].veinsmobility posx ETV
vector 481 MCScenario.node[97].veinsmobility posy ETV
vector 482 MCScenario.node[95].veinsmobility acceleration ETV
vector 483 MCScenario.node[95].veinsmobility co2emission ETV
vector 484 MCScenario.node[96].veinsmobility speed ETV
vector 485 MCScenario.node[98].veinsmobility posx ETV
vector 486 MCScenario.node[98].veinsmobility posy ETV
vector 487 MCScenario.node[96].veinsmobility acceleration ETV
vector 488 MCScenario.node[96].veinsmobility co2emission ETV
vector 489 MCScenario.node[97].veinsmobility speed ETV
vector 490 MCScenario.node[99].veinsmobility posx ETV
vector 491 MCScenario.node[99].veinsmobility posy ETV
vector 492 MCScenario.node[97].veinsmobility acceleration ETV
vector 493 MCScenario.node[97].veinsmobility co2emission ETV
vector 494 MCScenario.node[98].veinsmobility speed ETV
vector 495 MCScenario.node[100].veinsmobility posx ETV
vector 496 MCScenario.node[100].veinsmobility posy ETV
vector 497 MCScenario.node[98].veinsmobility acceleration ETV
vector 498 MCScenario.node[98].veinsmobility co2emission ETV
vector 499 MCScenario.node[99].veinsmobility speed ETV
vector 500 MCScenario.node[101].veinsmobility posx ETV
vector 501 MCScenario.node[101].veinsmobility posy ETV
vector 502 MCScenario.node[99].veinsmobility acceleration ETV
vector 503 MCScenario.node[99].veinsmobility co2emission ETV
vector 504 MCScenario.node[100].veinsmobility speed ETV
vector 505 MCScenario.node[100].veinsmobility acceleration ETV
vector 506 MCScenario.node[100].veinsmobility co2emission ETV
vector 507 MCScenario.node[101].veinsmobility speed ETV
vector 508 MCScenario.node[102].veinsmobility posx ETV
vector 509 MCScenario.node[102].veinsmobility posy ETV
vector 510 MCScenario.node[101].veinsmobility acceleration ETV
vector 511 MCScenario.node[101].veinsmobility co2emission ETV
vector 512 MCScenario.node[103].veinsmobility posx ETV
vector 513 MCScenario.node[103].veinsmobility posy ETV
vector 514 MCScenario.node[104].veinsmobility posx ETV
vector 515 MCScenario.node[104].veinsmobility posy ETV
vector 516 MCScenario.node[102].veinsmobility speed ETV
vector 517 MCScenario.node[102].veinsmobility acceleration ETV
vector 518 MCScenario.node[102].veinsmobility co2emission ETV
vector 519 MCScenario.node[103].veinsmobility speed ETV
vector 520 MCScenario.node[104].veinsmobility speed ETV
373	47265 747 77 107 76 106 31 0.973 9.544907281939 89.159670577083 379.39008122416
372	48012 859 77 107 76 106 31 -1.0851165769389 2.4815434394404 11.295125672966 31.079828453533
367	48871 841 76 107 75 106 32 1.7443409819622 13.830238221074 384.75731629101 4888.5717651846
357	49712 609 75 107 74 106 33 1823.35 1823.35 60170.55 109711972.3425
356	50321 851 75 107 74 106 33 243.43215036392 615.15 14867.070896188 7164504.8438671
278	51172 1153 58 107 57 106 50 0.973 8.7918173036008 160.70961466589 756.99537724547
277	52325 1351 58 107 57 106 50 -4.5 2.4982800753089 12.18759068083 112.34315223665
272	53676 1335 57 107 56 106 51 1.3823977574008 13.856679396331 579.62366514229 7059.0157396015
265	55011 1069 56 107 55 106 52 1626.65 1805.4036767041 85897.028873832 142018545.38165
264	56080 1227 56 107 55 106 52 1034.85 1423.35 66151.656652642 85215599.688552
vector 521 MCScenario.node[105].veinsmobility posx ETV
vector 522 MCScenario.node[105].veinsmobility posy ETV
vector 523 MCScenario.node[103].veinsmobility acceleration ETV
vector 524 MCScenario.node[103].veinsmobility co2emission ETV
vector 525 MCScenario.node[104].veinsmobility acceleration ETV
vector 526 MCScenario.node[104].veinsmobility co2emission ETV
58	57667 2089 14 108 13 107 95 0.973 9.2922689667369 282.08901890056 1234.7811039275
57	59756 2480 14 108 13 107 95 -4.5 2.5500469468068 11.166015906609 173.01429653756
54	62236 2405 13 108 12 107 96 2.318484536279 13.839151740004 1163.9512486911 14704.770026974
46	64641 1825 12 108 11 107 97 23.35 221.8258628441 5870.9918788 694624.50088587
45	66466 2150 12 108 11 107 97 1223.35 1822.541392117 140356.70376683 207931344.71147
vector 527 MCScenario.node[106].veinsmobility posx ETV
vector 528 MCScenario.node[106].veinsmobility posy ETV
vector 529 MCScenario.node[107].veinsmobility posx ETV
vector 530 MCScenario.node[107].veinsmobility posy ETV
vector 531 MCScenario.node[105].veinsmobility speed ETV
vector 532 MCScenario.node[105].veinsmobility acceleration ETV
vector 533 MCScenario.node[105].veinsmobility co2emission ETV
vector 534 MCScenario.node[106].veinsmobility speed ETV
vector 535 MCScenario.node[107].veinsmobility speed ETV
vector 536 MCScenario.node[108].veinsmobility posx ETV
vector 537 MCScenario.node[108].veinsmobility posy ETV
vector 538 MCScenario.node[109].veinsmobility posx ETV
vector 539 MCScenario.node[109].veinsmobility posy ETV
vector 540 MCScenario.node[106].veinsmobility acceleration ETV
vector 541 MCScenario.node[106].veinsmobility co2emission ETV
vector 542 MCScenario.node[107].veinsmobility acceleration ETV
vector 543 MCScenario.node[107].veinsmobility co2emission ETV
vector 544 MCScenario.node[110].veinsmobility posx ETV
vector 545 MCScenario.node[110].veinsmobility posy ETV
vector 546 MCScenario.node[108].veinsmobility speed ETV
vector 547 MCScenario.node[109].veinsmobility speed ETV
vector 548 MCScenario.node[111].veinsmobility posx ETV
vector 549 MCScenario.node[111].veinsmobility posy ETV
vector 550 MCScenario.node[108].veinsmobility acceleration ETV
vector 551 MCScenario.node[108].veinsmobility co2emission ETV
vector 552 MCScenario.node[109].veinsmobility acceleration ETV
vector 553 MCScenario.node[109].veinsmobility co2emission ETV
vector 554 MCScenario.node[110].veinsmobility speed ETV
323	70237 1117 67 113 66 112 47 0.973 8.5942699582482 140.99532526502 612.5412390328
322	71354 1291 67 113 66 112 47 -4.5 2.4776408360573 11.849217665452 74.38532747482
319	72645 1270 66 113 65 112 48 1.6207878435263 13.852301157918 569.13103700708 7180.236072202
311	73915 1003 65 113 64 112 49 426.65 623.35 26430.445984892 14623409.6695
310	74918 1162 65 113 64 112 49 1426.65 1615.15 73321.389617757 109947864.83542
vector 555 MCScenario.node[112].veinsmobility posx ETV
vector 556 MCScenario.node[112].veinsmobility posy ETV
vector 557 MCScenario.node[110].veinsmobility acceleration ETV
vector 558 MCScenario.node[110].veinsmobility co2emission ETV
vector 559 MCScenario.node[111].veinsmobility speed ETV
vector 560 MCScenario.node[113].veinsmobility posx ETV
vector 561 MCScenario.node[113].veinsmobility posy ETV
vector 562 MCScenario.node[111].veinsmobility acceleration ETV
vector 563 MCScenario.node[111].veinsmobility co2emission ETV
vector 564 MCScenario.node[112].veinsmobility speed ETV
8	76662 2352 4 115 3 114 112 0.973 9.5599067111892 328.12371132677 1422.4792632757
7	79014 2789 4 115 3 114 112 -4.5 2.5771866187453 11.466134590073 210.34498019872
4	81803 2711 3 115 2 114 113 1.8865424470045 13.886573710549 1370.5131938607 17360.554601865
1	84514 2427 2 115 1 114 114 623.35 1594.8705168236 122607.05811059 144490451.4704
0	86941 2060 2 115 1 114 114 623.35 823.35 77835.34280932 53875124.127895
vector 565 MCScenario.node[114].veinsmobility posx ETV
vector 566 MCScenario.node[114].veinsmobility posy ETV
vector 567 MCScenario.node[112].veinsmobility acceleration ETV
vector 568 MCScenario.node[112].veinsmobility co2emission ETV
vector 569 MCScenario.node[113].veinsmobility speed ETV
vector 570 MCScenario.node[115].veinsmobility posx ETV
vector 571 MCScenario.node[115].veinsmobility posy ETV
vector 572 MCScenario.node[113].veinsmobility acceleration ETV
vector 573 MCScenario.node[113].veinsmobility co2emission ETV
vector 574 MCScenario.node[114].veinsmobility speed ETV
vector 575 MCScenario.node[116].veinsmobility posx ETV
vector 576 MCScenario.node[116].veinsmobility posy ETV
vector 577 MCScenario.node[114].veinsmobility acceleration ETV
vector 578 MCScenario.node[114].veinsmobility co2emission ETV
vector 579 MCScenario.node[115].veinsmobility speed ETV
108	89874 2184 24 118 23 117 95 0.973 9.3908327446052 289.18284778846 1328.1224510479
107	92058 2582 24 118 23 117 95 -4.5 2.5067451274488 11.298490058631 168.21947039768
104	94640 2520 23 118 22 117 96 2.0845425395062 13.893090447993 1173.2870607266 14876.873908222
96	97160 2123 22 118 21 117 97 23.35 797.61402812845 35818.159753479 19935205.056537
95	99283 1974 22 118 21 117 97 1423.35 1623.35 144765.92177047 216715351.54591
vector 580 MCScenario.node[117].veinsmobility posx ETV
vector 581 MCScenario.node[117].veinsmobility posy ETV
vector 582 MCScenario.node[115].veinsmobility acceleration ETV
vector 583 MCScenario.node[115].veinsmobility co2emission ETV
vector 584 MCScenario.node[116].veinsmobility speed ETV
88	101548 2186 20 119 19 118 100 0.973 10.290245763092 305.62769975939 1437.0994107086
87	103734 2635 20 119 19 118 100 -4.5 2.5623616817873 10.758700472373 244.62948302557
84	106369 2549 19 119 18 118 101 2.2323509526905 13.85931971916 1177.7983620338 14551.124213141
76	108918 1822 18 119 17 118 102 434.85 623.35 61369.339932369 37202415.76819
75	110740 2424 18 119 17 118 102 45.842689391293 1023.35 63753.890591783 49991631.470052
vector 585 MCScenario.node[118].veinsmobility posx ETV
vector 586 MCScenario.node[118].veinsmobility posy ETV
vector 587 MCScenario.node[116].veinsmobility acceleration ETV
vector 588 MCScenario.node[116].veinsmobility co2emission ETV
vector 589 MCScenario.node[117].veinsmobility speed ETV
53	113455 2379 13 120 12 119 108 0.973 8.4971681549264 293.75374415383 1162.0979595044
52	115834 2864 13 120 12 119 108 -4.5 2.1921998833306 12.240794250928 113.81247138047
49	118698 2759 12 120 11 119 109 1.3719304058002 13.893895873288 1373.1382441884 17797.632000747
41	121457 2500 11 120 10 119 110 226.65 1223.35 83339.988651763 77849283.709888
40	123957 2099 11 120 10 119 110 826.65 1015.15 94425.798720119 81430277.871859
vector 590 MCScenario.node[119].veinsmobility posx ETV
vector 591 MCScenario.node[119].veinsmobility posy ETV
vector 592 MCScenario.node[117].veinsmobility acceleration ETV
vector 593 MCScenario.node[117].veinsmobility co2emission ETV
vector 594 MCScenario.node[118].veinsmobility speed ETV
vector 595 MCScenario.node[120].veinsmobility posx ETV
vector 596 MCScenario.node[120].veinsmobility posy ETV
vector 597 MCScenario.node[118].veinsmobility acceleration ETV
vector 598 MCScenario.node[118].veinsmobility co2emission ETV
vector 599 MCScenario.node[119].veinsmobility speed ETV
vector 600 MCScenario.node[119].veinsmobility acceleration ETV
vector 601 MCScenario.node[119].veinsmobility co2emission ETV
vector 602 MCScenario.node[120].veinsmobility speed ETV
vector 603 MCScenario.node[121].veinsmobility posx ETV
vector 604 MCScenario.node[121].veinsmobility posy ETV
vector 605 MCScenario.node[120].veinsmobility acceleration ETV
vector 606 MCScenario.node[120].veinsmobility co2emission ETV
vector 607 MCScenario.node[122].veinsmobility posx ETV
vector 608 MCScenario.node[122].veinsmobility posy ETV
vector 609 MCScenario.node[123].veinsmobility posx ETV
vector 610 MCScenario.node[123].veinsmobility posy ETV
vector 611 MCScenario.node[121].veinsmobility speed ETV
78	127330 2469 18 125 17 124 108 0.973 9.8395805526896 295.83845894343 1159.3286801424
77	129799 2877 18 125 17 124 108 -4.5 2.5851443083491 11.402792169224 129.91899602262
74	132676 2770 17 125 16 124 109 1.7744234598242 13.896519810846 1360.5004121699 17567.699378455
66	135446 2361 16 125 15 124 110 623.35 1423.35 109085.76135032 119219879.17326
65	137807 2239 16 125 15 124 110 826.65 1019.2459922495 96422.981448726 85029137.464655
371	140046 1192 77 125 76 124 49 0.973 10.155945110039 158.90936464824 791.26864247338
370	141238 1364 77 125 76 124 49 -4.5 2.5964145920705 11.857924838457 131.55482320141
366	142602 1348 76 125 75 124 50 1.6034316292964 13.810824115085 573.63135276047 7050.1380041762
355	143950 1247 75 125 74 124 51 1623.35 1819.9095941123 86119.380517877 145655336.94535
354	145197 1061 75 125 74 124 51 451.12000370729 626.65 30622.434667749 18505072.066739
vector 612 MCScenario.node[121].veinsmobility acceleration ETV
vector 613 MCScenario.node[121].veinsmobility co2emission ETV
vector 614 MCScenario.node[122].veinsmobility speed ETV
vector 615 MCScenario.node[123].veinsmobility speed ETV
43	146495 2592 11 126 10 125 116 0.973 9.0249254045623 360.01121513213 1662.1425376291
42	149087 3022 11 126 10 125 116 -4.5 2.4709355429979 11.5998941147 301.60915083364
39	152109 2966 10 126 9 125 117 1.3556982993847 13.883259562473 1374.8027893591 17033.794425425
31	155075 2191 9 126 8 125 118 1423.35 1615.15 170496.53648047 246635649.91191
30	157266 2812 9 126 8 125 118 426.65 1420.0831605829 106377.774052 109999975.49637
230	160078 1863 49 126 48 125 78 0.973 9.2290887050298 220.18996535279 882.25057260332
229	161941 2158 49 126 48 125 78 -4.5 2.5117874378571 11.492680728645 102.2725763038
226	164099 2103 48 126 47 125 79 1.9361824263353 13.892836426361 975.63728969606 12557.873138316
217	166202 1874 47 126 46 125 80 1226.65 1816.65 117405.08436381 175105440.40884
216	168076 1657 47 126 46 125 80 26.65 403.73842654108 11106.276011254 2638984.1430329
vector 616 MCScenario.node[124].veinsmobility posx ETV
vector 617 MCScenario.node[124].veinsmobility posy ETV
vector 618 MCScenario.node[122].veinsmobility acceleration ETV
vector 619 MCScenario.node[122].veinsmobility co2emission ETV
vector 620 MCScenario.node[123].veinsmobility acceleration ETV
vector 621 MCScenario.node[123].veinsmobility co2emission ETV
213	170093 1942 46 127 45 126 82 0.973 9.1396717611856 263.8477481523 1263.9679830614
212	172035 2244 46 127 45 126 82 -4.5 2.4699583320646 11.471019641962 222.56472989005
211	174279 2207 45 127 44 126 83 1.5658048289595 13.857440742361 965.80454304011 11909.321898072
204	176486 1919 44 127 43 126 84 629.0874434805 1015.15 68158.170061706 56082624.671439
203	178405 1842 44 127 43 126 84 1023.35 1426.65 100575.03961253 122860456.06279
vector 622 MCScenario.node[125].veinsmobility posx ETV
vector 623 MCScenario.node[125].veinsmobility posy ETV
vector 624 MCScenario.node[124].veinsmobility speed ETV
vector 625 MCScenario.node[124].veinsmobility acceleration ETV
vector 626 MCScenario.node[124].veinsmobility co2emission ETV
vector 627 MCScenario.node[125].veinsmobility speed ETV
93	180594 2404 21 129 20 128 109 0.973 9.702504464178 296.5862958754 1194.8442815921
92	182998 2920 21 129 20 128 109 -4.2831768914941 2.4799139474053 11.024809752451 139.07635519074
89	185918 2800 20 129 19 128 110 2.2549936615629 13.899928044528 1364.1734044267 17463.437604791
81	188718 2556 19 129 18 128 111 826.65 1815.15 148154.04510624 209676723.81522
80	191274 2133 19 129 18 128 111 826.65 1026.65 98524.835310058 88192205.756769
vector 628 MCScenario.node[126].veinsmobility posx ETV
vector 629 MCScenario.node[126].veinsmobility posy ETV
vector 630 MCScenario.node[127].veinsmobility posx ETV
vector 631 MCScenario.node[127].veinsmobility posy ETV
vector 632 MCScenario.node[125].veinsmobility acceleration ETV
vector 633 MCScenario.node[125].veinsmobility co2emission ETV
vector 634 MCScenario.node[128].veinsmobility posx ETV
vector 635 MCScenario.node[128].veinsmobility posy ETV
vector 636 MCScenario.node[126].veinsmobility speed ETV
vector 637 MCScenario.node[127].veinsmobility speed ETV
143	193974 2343 31 131 30 130 101 0.973 10.3884139103 331.89422434541 1663.4785202286
142	196317 2752 31 131 30 130 101 -4.5 2.5959705937421 11.087651318987 311.352135556
139	199069 2702 30 131 29 130 102 1.797044705064 13.893232231098 1171.63264501 14314.091645458
131	201771 2049 29 131 28 130 103 1223.35 1426.65 138536.41510688 187225077.12101
130	203820 2578 29 131 28 130 103 448.04205101403 1219.6552616579 91500.378228883 85933186.083271
vector 638 MCScenario.node[129].veinsmobility posx ETV
vector 639 MCScenario.node[129].veinsmobility posy ETV
vector 640 MCScenario.node[130].veinsmobility posx ETV
vector 641 MCScenario.node[130].veinsmobility posy ETV
vector 642 MCScenario.node[126].veinsmobility acceleration ETV
vector 643 MCScenario.node[126].veinsmobility co2emission ETV
vector 644 MCScenario.node[127].veinsmobility acceleration ETV
vector 645 MCScenario.node[127].veinsmobility co2emission ETV
vector 646 MCScenario.node[128].veinsmobility speed ETV
256	206924 1876 54 132 53 131 79 0.973 9.1927891794722 244.86896114426 1177.4030319027
255	208800 2203 54 132 53 131 79 -4.5 2.5751402330585 10.327380378661 169.55756131487
254	211003 2141 53 132 52 131 80 2.4826971233124 13.865782271465 970.43916176476 12197.860344096
246	213144 1774 52 132 51 131 81 1226.65 1626.65 117765.57396292 173578041.59228
245	214918 1865 52 132 51 131 81 434.85 996.15908426279 54097.817085409 37689501.789561
23	216783 2776 7 132 6 131 126 0.973 10.042536105273 341.03295002767 1395.718132533
22	219559 3349 7 132 6 131 126 -4.5 2.5014544597594 11.49429442957 164.1771754869
19	222908 3220 6 132 5 131 127 1.7893671946833 13.872233711788 1573.9218948163 20171.077126065
11	226128 2840 5 132 4 131 128 423.35 1423.35 127309.03943925 145328766.45158
10	228968 2553 5 132 4 131 128 450.83176680798 1015.15 86475.558047878 60419409.968202
vector 647 MCScenario.node[131].veinsmobility posx ETV
vector 648 MCScenario.node[131].veinsmobility posy ETV
vector 649 MCScenario.node[128].veinsmobility acceleration ETV
vector 650 MCScenario.node[128].veinsmobility co2emission ETV
vector 651 MCScenario.node[129].veinsmobility speed ETV
vector 652 MCScenario.node[130].veinsmobility speed ETV
vector 653 MCScenario.node[132].veinsmobility posx ETV
vector 654 MCScenario.node[132].veinsmobility posy ETV
vector 655 MCScenario.node[129].veinsmobility acceleration ETV
vector 656 MCScenario.node[129].veinsmobility co2emission ETV
vector 657 MCScenario.node[130].veinsmobility acceleration ETV
vector 658 MCScenario.node[130].veinsmobility co2emission ETV
vector 659 MCScenario.node[131].veinsmobility speed ETV
vector 660 MCScenario.node[133].veinsmobility posx ETV
vector 661 MCScenario.node[133].veinsmobility posy ETV
vector 662 MCScenario.node[131].veinsmobility acceleration ETV
vector 663 MCScenario.node[131].veinsmobility co2emission ETV
vector 664 MCScenario.node[132].veinsmobility speed ETV
vector 665 MCScenario.node[134].veinsmobility posx ETV
vector 666 MCScenario.node[134].veinsmobility posy ETV
vector 667 MCScenario.node[132].veinsmobility acceleration ETV
vector 668 MCScenario.node[132].veinsmobility co2emission ETV
vector 669 MCScenario.node[133].veinsmobility speed ETV
vector 670 MCScenario.node[135].veinsmobility posx ETV
vector 671 MCScenario.node[135].veinsmobility posy ETV
vector 672 MCScenario.node[133].veinsmobility acceleration ETV
vector 673 MCScenario.node[133].veinsmobility co2emission ETV
vector 674 MCScenario.node[134].veinsmobility speed ETV
vector 675 MCScenario.node[136].veinsmobility posx ETV
vector 676 MCScenario.node[136].veinsmobility posy ETV
vector 677 MCScenario.node[134].veinsmobility acceleration ETV
vector 678 MCScenario.node[134].veinsmobility co2emission ETV
vector 679 MCScenario.node[135].veinsmobility speed ETV
vector 680 MCScenario.node[137].veinsmobility posx ETV
vector 681 MCScenario.node[137].veinsmobility posy ETV
vector 682 MCScenario.node[135].veinsmobility acceleration ETV
vector 683 MCScenario.node[135].veinsmobility co2emission ETV
vector 684 MCScenario.node[136].veinsmobility speed ETV
201	233739 2355 43 139 42 138 97 0.973 8.1491097646262 292.91612910137 1282.0371585328
200	236094 2688 43 139 42 138 97 -4.5 2.4894131563604 12.31116552141 222.39452886816
199	238782 2616 42 139 41 138 98 1.4696649069432 13.867571851774 1166.4395370008 14613.554067798
191	241398 2225 41 139 40 138 99 1049.6312934276 1626.65 141282.01306987 205425549.95889
190	243623 2219 41 139 40 138 99 26.65 420.02393729081 21352.211874091 5854266.42315
vector 685 MCScenario.node[138].veinsmobility posx ETV
vector 686 MCScenario.node[138].veinsmobility posy ETV
vector 687 MCScenario.node[136].veinsmobility acceleration ETV
vector 688 MCScenario.node[136].veinsmobility co2emission ETV
vector 689 MCScenario.node[137].veinsmobility speed ETV
238	246133 2170 50 140 49 139 91 0.973 9.1255045623315 223.1724777699 789.21132081644
237	248303 2576 50 140 49 139 91 -1.1440078777028 2.5718046597904 10.71441070966 44.97340977684
232	250879 2463 49 140 48 139 92 2.304790837667 13.896065559238 1180.5499820315 15421.013223737
225	253342 2359 48 140 47 139 93 234.85 1223.35 72679.540909723 66998615.453704
224	255701 1788 48 140 47 139 93 243.11921951582 423.35 38057.224774887 15718455.870945
vector 690 MCScenario.node[139].veinsmobility posx ETV
vector 691 MCScenario.node[139].veinsmobility posy ETV
vector 692 MCScenario.node[137].veinsmobility acceleration ETV
vector 693 MCScenario.node[137].veinsmobility co2emission ETV
vector 694 MCScenario.node[138].veinsmobility speed ETV
28	257780 2983 8 141 7 140 134 0.973 8.8959257201412 412.86146284716 1933.3965286148
27	260763 3521 8 141 7 140 134 -4.5 2.5737160811434 11.422175538074 362.31990106133
24	264284 3424 7 141 6 140 135 1.4406950977165 13.86800110687 1564.5339238714 19138.248539362
16	267708 2663 6 141 5 140 136 1430.1176978516 1626.65 217705.94954283 348884226.98857
15	270371 3101 6 141 5 140 136 23.35 1019.7781630059 59502.888848573 43782269.087161
543	273472 797 111 141 110 140 31 0.973 9.6575312487741 86.343918951814 358.50083775944
542	274269 908 111 141 110 140 31 -0.96979776083026 2.492758446862 10.950066999975 27.995602144926
535	275177 895 110 141 109 140 32 1.7021503886674 13.839905676129 379.75795057004 4800.2318576899
530	276072 906 109 141 108 140 33 1434.85 1801.9557331814 52674.384985409 84539937.101871
529	276978 594 109 141 108 140 33 23.35 23.35 770.55 17992.3425
18	277572 3035 6 141 5 140 136 0.973 9.2283142453543 414.67978783209 1902.8585782408
17	280607 3578 6 141 5 140 136 -4.5 2.5562873781193 11.701163593377 340.81787067849
14	284185 3483 5 141 4 140 137 0.76941436438634 13.897634658171 1570.108987317 19247.785017837
6	287668 2283 4 141 3 140 138 223.35 423.35 35065.798721285 9514153.9449567
5	289951 3228 4 141 3 140 138 49.866846970529 1219.9108512275 92380.819149588 80276032.08365
vector 695 MCScenario.node[138].veinsmobility acceleration ETV
vector 696 MCScenario.node[138].veinsmobility co2emission ETV
vector 697 MCScenario.node[139].veinsmobility speed ETV
13	293360 3045 5 142 4 141 138 0.973 9.6163788821991 359.11661236206 1388.9795988579
12	296405 3695 5 142 4 141 138 -4.5 2.4938043827657 12.17707441072 116.87666625604
9	300100 3388 4 142 3 141 139 1.6702538255369 13.893776405859 1773.3979779449 23080.472569843
3	303488 3006 3 142 2 141 140 623.35 1826.65 166217.70142608 225840619.5825
2	306494 2678 3 142 2 141 140 1434.85 1819.2567460282 228482.7937262 373633386.7469
vector 698 MCScenario.node[140].veinsmobility posx ETV
vector 699 MCScenario.node[140].veinsmobility posy ETV
vector 700 MCScenario.node[141].veinsmobility posx ETV
vector 701 MCScenario.node[141].veinsmobility posy ETV
vector 702 MCScenario.node[139].veinsmobility acceleration ETV
vector 703 MCScenario.node[139].veinsmobility co2emission ETV
219	309517 2294 47 143 46 142 97 0.973 9.0358028472282 296.38116768011 1368.9781657726
218	311811 2689 47 143 46 142 97 -4.5 2.5727649152046 11.636241184687 216.26674989891
214	314500 2629 46 143 45 142 98 2.1081760139205 13.887289220863 1167.4903673066 14607.9475203
208	317129 2072 45 143 44 142 99 426.65 621.20840411745 45704.008883881 21456694.459662
207	319201 2341 45 143 44 142 99 823.35 1597.775950108 106067.28351333 120115061.44754
vector 704 MCScenario.node[142].veinsmobility posx ETV
vector 705 MCScenario.node[142].veinsmobility posy ETV
vector 706 MCScenario.node[140].veinsmobility speed ETV
vector 707 MCScenario.node[141].veinsmobility speed ETV
vector 708 MCScenario.node[143].veinsmobility posx ETV
vector 709 MCScenario.node[143].veinsmobility posy ETV
vector 710 MCScenario.node[140].veinsmobility acceleration ETV
vector 711 MCScenario.node[140].veinsmobility co2emission ETV
vector 712 MCScenario.node[141].veinsmobility acceleration ETV
vector 713 MCScenario.node[141].veinsmobility co2emission ETV
vector 714 MCScenario.node[142].veinsmobility speed ETV
vector 715 MCScenario.node[144].veinsmobility posx ETV
vector 716 MCScenario.node[144].veinsmobility posy ETV
vector 717 MCScenario.node[142].veinsmobility acceleration ETV
vector 718 MCScenario.node[142].veinsmobility co2emission ETV
vector 719 MCScenario.node[143].veinsmobility speed ETV
568	322471 796 116 146 115 145 31 0.973 9.8827128814637 99.080445083615 497.8853674704
567	323267 891 116 146 115 145 31 -4.5 2.5816925026942 11.529429425718 59.316618978145
564	324158 892 115 146 114 145 32 1.8058654547436 13.882810042356 374.84966251046 4686.757246498
556	325050 660 114 146 113 145 33 1623.35 1626.65 53633.25 87167527.3425
555	325710 901 114 146 113 145 33 1234.85 1419.3998274032 43585.073688137 57683115.24273
178	326611 2579 38 146 37 145 109 0.973 9.2016833787478 294.97871395342 1161.3814225975
177	329190 3068 38 146 37 145 109 -4.3261160819968 2.5852621906437 11.236301234784 131.39785836142
174	332258 2935 37 146 36 145 110 1.4522820021026 13.883207009686 1371.087815433 17643.509595427
166	335193 2226 36 146 35 145 111 1623.35 1823.35 194653.77395929 342249942.48832
165	337419 2828 36 146 35 145 111 30.230883687335 1015.15 49368.725729051 32536337.975438
vector 720 MCScenario.node[145].veinsmobility posx ETV
vector 721 MCScenario.node[145].veinsmobility posy ETV
vector 722 MCScenario.node[143].veinsmobility acceleration ETV
vector 723 MCScenario.node[143].veinsmobility co2emission ETV
vector 724 MCScenario.node[144].veinsmobility speed ETV
158	340538 2708 34 147 33 146 114 0.973 8.9203787836954 332.28051432426 1480.1873021679
157	343246 3180 34 147 33 146 114 -4.5 2.5305446692742 12.253322150907 217.33127579337
154	346426 3073 33 147 32 146 115 1.5074429040309 13.878805843578 1372.3260261235 17155.736740584
146	349499 2529 32 147 31 146 116 634.85 1226.65 106237.3878371 100976088.23467
145	352028 2715 32 147 31 146 116 1023.35 1623.35 145532.03692317 188898615.63278
vector 725 MCScenario.node[146].veinsmobility posx ETV
vector 726 MCScenario.node[146].veinsmobility posy ETV
vector 727 MCScenario.node[144].veinsmobility acceleration ETV
vector 728 MCScenario.node[144].veinsmobility co2emission ETV
vector 729 MCScenario.node[145].veinsmobility speed ETV
vector 730 MCScenario.node[147].veinsmobility posx ETV
vector 731 MCScenario.node[147].veinsmobility posy ETV
vector 732 MCScenario.node[145].veinsmobility acceleration ETV
vector 733 MCScenario.node[145].veinsmobility co2emission ETV
vector 734 MCScenario.node[146].veinsmobility speed ETV
vector 735 MCScenario.node[148].veinsmobility posx ETV
vector 736 MCScenario.node[148].veinsmobility posy ETV
vector 737 MCScenario.node[146].veinsmobility acceleration ETV
vector 738 MCScenario.node[146].veinsmobility co2emission ETV
vector 739 MCScenario.node[147].veinsmobility speed ETV
428	355616 1548 88 150 87 149 63 0.973 8.8683956822935 189.7361687112 838.14001237149
427	357164 1809 88 150 87 149 63 -4.3588264945041 2.5949735736242 11.209826696338 111.95813085963
422	358973 1757 87 150 86 149 64 1.8929020554759 13.868120549479 764.82965115446 9578.9625774769
415	360730 1650 86 150 85 149 65 829.06307418105 1023.35 61920.906768263 59266624.092062
414	362380 1405 86 150 85 149 65 1226.65 1426.65 88241.885498908 120270445.93588
vector 740 MCScenario.node[147].veinsmobility acceleration ETV
vector 741 MCScenario.node[147].veinsmobility co2emission ETV
vector 742 MCScenario.node[148].veinsmobility speed ETV
vector 743 MCScenario.node[149].veinsmobility posx ETV
vector 744 MCScenario.node[149].veinsmobility posy ETV
vector 745 MCScenario.node[150].veinsmobility posx ETV
vector 746 MCScenario.node[150].veinsmobility posy ETV
vector 747 MCScenario.node[148].veinsmobility acceleration ETV
vector 748 MCScenario.node[148].veinsmobility co2emission ETV
vector 749 MCScenario.node[151].veinsmobility posx ETV
vector 750 MCScenario.node[151].veinsmobility posy ETV
vector 751 MCScenario.node[149].veinsmobility speed ETV
vector 752 MCScenario.node[150].veinsmobility speed ETV
433	364533 1582 89 153 88 152 65 0.973 9.3182474415469 203.01999273276 986.40919760481
432	366115 1832 89 153 88 152 65 -4.5 2.5452037037816 6.4977518526888 160.45397634419
429	367947 1820 88 153 87 152 66 2.2741921420675 13.897683376307 782.56115636105 9680.7853054741
418	369767 1698 87 153 86 152 67 1623.35 1821.3262245899 113608.4851827 192941024.12638
417	371465 1455 87 153 86 152 67 1623.35 1826.65 117399.64943591 206232685.70303
vector 753 MCScenario.node[149].veinsmobility acceleration ETV
vector 754 MCScenario.node[149].veinsmobility co2emission ETV
vector 755 MCScenario.node[150].veinsmobility acceleration ETV
vector 756 MCScenario.node[150].veinsmobility co2emission ETV
vector 757 MCScenario.node[151].veinsmobility speed ETV
vector 758 MCScenario.node[152].veinsmobility posx ETV
vector 759 MCScenario.node[152].veinsmobility posy ETV
vector 760 MCScenario.node[151].veinsmobility acceleration ETV
vector 761 MCScenario.node[151].veinsmobility co2emission ETV
vector 762 MCScenario.node[152].veinsmobility speed ETV
vector 763 MCScenario.node[153].veinsmobility posx ETV
vector 764 MCScenario.node[153].veinsmobility posy ETV
vector 765 MCScenario.node[152].veinsmobility acceleration ETV
vector 766 MCScenario.node[152].veinsmobility co2emission ETV
vector 767 MCScenario.node[154].veinsmobility posx ETV
vector 768 MCScenario.node[154].veinsmobility posy ETV
vector 769 MCScenario.node[155].veinsmobility posx ETV
vector 770 MCScenario.node[155].veinsmobility posy ETV
vector 771 MCScenario.node[153].veinsmobility speed ETV
303	374028 2304 63 158 62 157 96 0.973 9.6769470667396 301.68468858183 1447.2966975706
302	376332 2692 63 158 62 157 96 -4.5 2.464697607886 11.545257497532 199.27586709468
299	379024 2633 62 158 61 157 97 1.4731749021914 13.893592135585 1176.7874753026 14812.212111542
291	381657 1949 61 158 60 157 98 34.85 226.65 19910.864872767 4329217.6409842
290	383606 2485 61 158 60 157 98 223.35 1019.3589478122 57441.561939354 41540563.50288
vector 772 MCScenario.node[156].veinsmobility posx ETV
vector 773 MCScenario.node[156].veinsmobility posy ETV
vector 774 MCScenario.node[153].veinsmobility acceleration ETV
vector 775 MCScenario.node[153].veinsmobility co2emission ETV
vector 776 MCScenario.node[154].veinsmobility speed ETV
vector 777 MCScenario.node[155].veinsmobility speed ETV
465	386438 1583 96 159 95 158 64 0.973 8.8392403951158 190.19412277759 855.32269493197
464	388021 1826 96 159 95 158 64 -4.5 2.4777689604321 10.448600028991 127.47427388675
459	389847 1804 95 159 94 158 65 2.5191080554156 13.887978767604 772.47604913777 9674.3099871715
451	391651 1440 94 159 93 158 66 834.85 1023.35 65389.761312294 65032161.676057
450	393091 1685 94 159 93 158 66 651.14165894663 1223.35 66794.750532072 70014192.736116
vector 778 MCScenario.node[157].veinsmobility posx ETV
vector 779 MCScenario.node[157].veinsmobility posy ETV
vector 780 MCScenario.node[154].veinsmobility acceleration ETV
vector 781 MCScenario.node[154].veinsmobility co2emission ETV
vector 782 MCScenario.node[155].veinsmobility acceleration ETV
vector 783 MCScenario.node[155].veinsmobility co2emission ETV
vector 784 MCScenario.node[156].veinsmobility speed ETV
vector 785 MCScenario.node[158].veinsmobility posx ETV
vector 786 MCScenario.node[158].veinsmobility posy ETV
vector 787 MCScenario.node[159].veinsmobility posx ETV
vector 788 MCScenario.node[159].veinsmobility posy ETV
vector 789 MCScenario.node[156].veinsmobility acceleration ETV
vector 790 MCScenario.node[156].veinsmobility co2emission ETV
vector 791 MCScenario.node[157].veinsmobility speed ETV
vector 792 MCScenario.node[160].veinsmobility posx ETV
vector 793 MCScenario.node[160].veinsmobility posy ETV
vector 794 MCScenario.node[157].veinsmobility acceleration ETV
vector 795 MCScenario.node[157].veinsmobility co2emission ETV
vector 796 MCScenario.node[158].veinsmobility speed ETV
vector 797 MCScenario.node[159].veinsmobility speed ETV
vector 798 MCScenario.node[161].veinsmobility posx ETV
vector 799 MCScenario.node[161].veinsmobility posy ETV
vector 800 MCScenario.node[158].veinsmobility acceleration ETV
vector 801 MCScenario.node[158].veinsmobility co2emission ETV
vector 802 MCScenario.node[159].veinsmobility acceleration ETV
vector 803 MCScenario.node[159].veinsmobility co2emission ETV
vector 804 MCScenario.node[160].veinsmobility speed ETV
83	396356 3308 19 163 18 162 145 0.973 9.6394627769237 413.46754461458 1781.9102113274
82	399664 3879 19 163 18 162 145 -4.5 2.5680498673813 11.800141030503 264.31605565969
79	403543 3750 18 163 17 162 146 1.7903000787599 13.89330114706 1777.9969102913 22582.77164744
71	407293 3268 17 163 16 162 147 834.85 1826.65 185365.27148493 249064844.83493
70	410561 3086 17 163 16 162 147 823.35 1423.35 148497.66140105 157694050.51133
vector 805 MCScenario.node[162].veinsmobility posx ETV
vector 806 MCScenario.node[162].veinsmobility posy ETV
vector 807 MCScenario.node[160].veinsmobility acceleration ETV
vector 808 MCScenario.node[160].veinsmobility co2emission ETV
vector 809 MCScenario.node[161].veinsmobility speed ETV
vector 810 MCScenario.node[163].veinsmobility posx ETV
vector 811 MCScenario.node[163].veinsmobility posy ETV
vector 812 MCScenario.node[161].veinsmobility acceleration ETV
vector 813 MCScenario.node[161].veinsmobility co2emission ETV
vector 814 MCScenario.node[162].veinsmobility speed ETV
173	414229 3118 37 165 36 164 129 0.973 9.9943789285375 375.19664742423 1662.1437166866
172	417347 3631 37 165 36 164 129 -4.5 2.5412704464979 10.446292354935 254.92829862654
169	420978 3503 36 165 35 164 130 2.4431459045503 13.880233089486 1574.2161320311 19810.242584721
161	424481 2854 35 165 34 164 131 423.35 1026.65 110757.99474045 100800422.48451
160	427335 3146 35 165 34 164 131 1045.4633062284 1820.0771883126 183224.3251594 262888339.49469
vector 815 MCScenario.node[162].veinsmobility acceleration ETV
vector 816 MCScenario.node[162].veinsmobility co2emission ETV
vector 817 MCScenario.node[163].veinsmobility speed ETV
vector 818 MCScenario.node[164].veinsmobility posx ETV
vector 819 MCScenario.node[164].veinsmobility posy ETV
vector 820 MCScenario.node[163].veinsmobility acceleration ETV
vector 821 MCScenario.node[163].veinsmobility co2emission ETV
vector 822 MCScenario.node[165].veinsmobility posx ETV
vector 823 MCScenario.node[165].veinsmobility posy ETV
vector 824 MCScenario.node[164].veinsmobility speed ETV
276	431063 2663 58 168 57 167 111 0.973 10.362279435301 316.56305517671 1361.2682732917
275	433726 3123 58 168 57 167 111 -4.5 2.5884248017566 11.226410524594 171.29032804125
271	436849 3040 57 168 56 167 112 1.9230101361172 13.893096935027 1368.8568272484 17377.833796558
263	439889 2638 56 168 55 167 113 223.35 1023.35 70808.722176271 53878229.312344
262	442527 2514 56 168 55 167 113 623.35 823.35 78982.266217179 55955070.646682
vector 825 MCScenario.node[166].veinsmobility posx ETV
vector 826 MCScenario.node[166].veinsmobility posy ETV
vector 827 MCScenario.node[167].veinsmobility posx ETV
vector 828 MCScenario.node[167].veinsmobility posy ETV
vector 829 MCScenario.node[164].veinsmobility acceleration ETV
vector 830 MCScenario.node[164].veinsmobility co2emission ETV
vector 831 MCScenario.node[165].veinsmobility speed ETV
vector 832 MCScenario.node[168].veinsmobility posx ETV
vector 833 MCScenario.node[168].veinsmobility posy ETV
vector 834 MCScenario.node[165].veinsmobility acceleration ETV
vector 835 MCScenario.node[165].veinsmobility co2emission ETV
vector 836 MCScenario.node[166].veinsmobility speed ETV
vector 837 MCScenario.node[167].veinsmobility speed ETV
198	445789 3049 42 170 41 169 129 0.973 9.8329804161741 382.47661901214 1817.9494895066
197	448838 3602 42 170 41 169 129 -4.5 2.5982016386464 10.640349683887 275.14333251864
194	452440 3505 41 170 40 169 130 2.3950780476211 13.864050898002 1565.9661414898 19596.51737196
186	455945 2627 40 170 39 169 131 1023.35 1226.65 141564.26298809 153959390.7556
185	458572 3384 40 170 39 169 131 431.10278698466 1615.15 121894.82569336 131349782.67586
vector 838 MCScenario.node[166].veinsmobility acceleration ETV
vector 839 MCScenario.node[166].veinsmobility co2emission ETV
vector 840 MCScenario.node[167].veinsmobility acceleration ETV
vector 841 MCScenario.node[167].veinsmobility co2emission ETV
vector 842 MCScenario.node[168].veinsmobility speed ETV
vector 843 MCScenario.node[169].veinsmobility posx ETV
vector 844 MCScenario.node[169].veinsmobility posy ETV
vector 845 MCScenario.node[170].veinsmobility posx ETV
vector 846 MCScenario.node[170].veinsmobility posy ETV
vector 847 MCScenario.node[168].veinsmobility acceleration ETV
vector 848 MCScenario.node[168].veinsmobility co2emission ETV
vector 849 MCScenario.node[171].veinsmobility posx ETV
vector 850 MCScenario.node[171].veinsmobility posy ETV
vector 851 MCScenario.node[169].veinsmobility speed ETV
vector 852 MCScenario.node[170].veinsmobility speed ETV
vector 853 MCScenario.node[172].veinsmobility posx ETV
vector 854 MCScenario.node[172].veinsmobility posy ETV
vector 855 MCScenario.node[169].veinsmobility acceleration ETV
vector 856 MCScenario.node[169].veinsmobility co2emission ETV
vector 857 MCScenario.node[170].veinsmobility acceleration ETV
vector 858 MCScenario.node[170].veinsmobility co2emission ETV
vector 859 MCScenario.node[171].veinsmobility speed ETV
vector 860 MCScenario.node[173].veinsmobility posx ETV
vector 861 MCScenario.node[173].veinsmobility posy ETV
vector 862 MCScenario.node[171].veinsmobility acceleration ETV
vector 863 MCScenario.node[171].veinsmobility co2emission ETV
vector 864 MCScenario.node[172].veinsmobility speed ETV
33	463536 3758 9 175 8 174 167 0.973 9.816387953567 514.42354522251 2431.7816686185
32	467294 4466 9 175 8 174 167 -4.5 2.419205497345 11.934245930379 418.52308315577
29	471760 4329 8 175 7 174 168 0.32759681227965 13.87386018429 1969.1634147574 24474.26530414
21	476089 3362 7 175 6 174 169 823.35 1393.3684113705 193919.96085765 226623800.36961
20	479451 3930 7 175 6 174 169 23.35 1223.35 85803.971544211 74532523.183721
vector 865 MCScenario.node[174].veinsmobility posx ETV
vector 866 MCScenario.node[174].veinsmobility posy ETV
vector 867 MCScenario.node[172].veinsmobility acceleration ETV
vector 868 MCScenario.node[172].veinsmobility co2emission ETV
vector 869 MCScenario.node[173].veinsmobility speed ETV
113	483672 3595 25 176 24 175 152 0.973 9.2337117761921 458.0079332635 2129.1582244943
112	487267 4189 25 176 24 175 152 -4.5 2.5505941565381 7.2319918025135 395.57324886505
109	491456 4123 24 176 23 175 153 0.030554535549665 13.893828239478 1769.1164274908 21904.958114267
101	495579 3318 23 176 22 175 154 434.85 1026.65 133701.10151807 122317327.46421
100	498897 3696 23 176 22 175 154 623.35 1618.8891362403 158655.09607073 179453692.12551
103	502593 3747 23 176 22 175 154 0.973 9.0132875627486 390.00038653246 1416.2560472398
102	506340 4353 23 176 22 175 154 -4.5 2.4364454973489 11.755346677196 137.31030020839
99	510693 4014 22 176 21 175 155 1.6170613011345 13.890291187982 1971.9983937846 25704.149552882
91	514707 3755 21 176 20 175 156 234.85 1823.35 160996.02927504 206192979.3345
90	518462 3046 21 176 20 175 156 1448.3440141938 1823.35 260284.39375129 435671302.44626
vector 870 MCScenario.node[175].veinsmobility posx ETV
vector 871 MCScenario.node[175].veinsmobility posy ETV
vector 872 MCScenario.node[173].veinsmobility acceleration ETV
vector 873 MCScenario.node[173].veinsmobility co2emission ETV
vector 874 MCScenario.node[174].veinsmobility speed ETV
vector 875 MCScenario.node[174].veinsmobility acceleration ETV
vector 876 MCScenario.node[174].veinsmobility co2emission ETV
vector 877 MCScenario.node[175].veinsmobility speed ETV
vector 878 MCScenario.node[176].veinsmobility posx ETV
vector 879 MCScenario.node[176].veinsmobility posy ETV
vector 880 MCScenario.node[175].veinsmobility acceleration ETV
vector 881 MCScenario.node[175].veinsmobility co2emission ETV
338	522215 2702 70 179 69 178 110 0.973 8.7660109521555 294.12087512977 1175.0973950138
337	524917 3154 70 179 69 178 110 -4.3261072359746 2.5878122622147 11.751321624685 136.33913328359
334	528071 3033 69 179 68 178 111 1.3284001370193 13.898813210824 1369.9210956662 17526.027313417
326	531104 2634 68 179 67 178 112 826.65 1623.35 141168.53115248 189223800.26989
325	533738 2561 68 179 67 178 112 1049.3086260955 1423.35 151294.66764621 205590494.92117
vector 882 MCScenario.node[176].veinsmobility speed ETV
vector 883 MCScenario.node[177].veinsmobility posx ETV
vector 884 MCScenario.node[177].veinsmobility posy ETV
vector 885 MCScenario.node[178].veinsmobility posx ETV
vector 886 MCScenario.node[178].veinsmobility posy ETV
vector 887 MCScenario.node[176].veinsmobility acceleration ETV
vector 888 MCScenario.node[176].veinsmobility co2emission ETV
48	536700 3868 12 181 11 180 170 0.973 9.6759294601442 485.43044413327 2096.4664485609
47	540568 4563 12 181 11 180 170 -4.5 2.5826201204443 10.736516881292 356.68450644147
44	545131 4435 11 181 10 180 171 0.00068358435038734 13.879971619509 1973.7744292178 24632.32710843
36	549566 3463 10 181 9 180 172 423.35 1195.0678355082 95689.549346225 62035238.287646
35	553029 3897 10 181 9 180 172 623.35 1815.15 172362.55959073 201528155.7537
533	556926 1782 110 181 109 180 72 0.973 9.6030405615019 224.41769074387 1035.028112132
532	558708 2056 110 181 109 180 72 -4.5 2.5328634568257 11.487202070141 202.6048397426
531	560764 2038 109 181 108 180 73 0.024153072077639 13.897449211986 775.50496947548 9388.0437004514
522	562802 1876 108 181 107 180 74 244.53367228477 620.66410019416 33513.937962034 15750760.473063
521	564678 1670 108 181 107 180 74 1226.65 1426.65 99757.444950559 135067198.70567
vector 889 MCScenario.node[179].veinsmobility posx ETV
vector 890 MCScenario.node[179].veinsmobility posy ETV
vector 891 MCScenario.node[177].veinsmobility speed ETV
vector 892 MCScenario.node[178].veinsmobility speed ETV
738	566570 851 150 182 149 181 33 0.973 9.4888952527662 109.73358093888 551.2485629997
737	567421 941 150 182 149 181 33 -4.5 2.4597778422525 11.402646535728 84.131309326322
734	568362 948 149 182 148 181 34 2.2379366085166 13.85878582038 380.29567655648 4653.0991105807
726	569310 962 148 182 147 181 35 1434.85 1621.2396198987 53368.502456972 81511973.647018
725	570272 674 148 182 147 181 35 423.35 426.65 14867.404426062 6315512.3183202
333	570946 2818 69 182 68 181 114 0.973 9.6433799120439 336.60473714696 1521.4055841919
332	573764 3242 69 182 68 181 114 -4.5 2.5197536215652 11.467113171844 252.58318403279
329	577006 3145 68 182 67 181 115 1.3027072205208 13.887047432945 1372.062839879 17294.975543278
321	580151 2577 67 182 66 181 116 426.65 1023.35 78934.560831304 59591617.960898
320	582728 2790 67 182 66 181 116 634.85 1223.35 117385.63694449 122130922.93712
vector 893 MCScenario.node[180].veinsmobility posx ETV
vector 894 MCScenario.node[180].veinsmobility posy ETV
vector 895 MCScenario.node[181].veinsmobility posx ETV
vector 896 MCScenario.node[181].veinsmobility posy ETV
vector 897 MCScenario.node[177].veinsmobility acceleration ETV
vector 898 MCScenario.node[177].veinsmobility co2emission ETV
vector 899 MCScenario.node[178].veinsmobility acceleration ETV
vector 900 MCScenario.node[178].veinsmobility co2emission ETV
vector 901 MCScenario.node[179].veinsmobility speed ETV
441	586044 2359 91 183 90 182 93 0.973 9.2600911474244 253.61875797583 1012.3739703457
440	588403 2703 91 183 90 182 93 -3.9094025853242 2.551842035586 11.294547917694 112.16363704858
437	591106 2600 90 183 89 182 94 1.7978542174445 13.878718801937 1164.4379526001 14924.258060205
431	593706 2306 89 183 88 182 95 226.65 823.35 48349.261555318 29790019.512603
430	596012 2145 89 183 88 182 95 1626.65 1823.35 161155.77846013 274014109.94428
vector 902 MCScenario.node[182].veinsmobility posx ETV
vector 903 MCScenario.node[182].veinsmobility posy ETV
vector 904 MCScenario.node[179].veinsmobility acceleration ETV
vector 905 MCScenario.node[179].veinsmobility co2emission ETV
vector 906 MCScenario.node[180].veinsmobility speed ETV
vector 907 MCScenario.node[181].veinsmobility speed ETV
343	598504 2817 71 184 70 183 114 0.973 9.6834927907871 337.17646270675 1512.362395687
342	601321 3219 71 184 70 183 114 -4.5 2.4569597010734 11.729599257442 318.03400935731
339	604540 3166 70 184 69 183 115 0.00034497907164759 13.870968967117 1170.4403336127 13987.94291112
331	607706 2452 69 184 68 183 116 628.53654160436 826.65 92408.427719754 73979492.525257
330	610158 2862 69 184 68 183 116 423.35 1019.2203245323 75978.526967038 54850199.933124
vector 908 MCScenario.node[183].veinsmobility posx ETV
vector 909 MCScenario.node[183].veinsmobility posy ETV
vector 910 MCScenario.node[180].veinsmobility acceleration ETV
vector 911 MCScenario.node[180].veinsmobility co2emission ETV
vector 912 MCScenario.node[181].veinsmobility acceleration ETV
vector 913 MCScenario.node[181].veinsmobility co2emission ETV
vector 914 MCScenario.node[182].veinsmobility speed ETV
vector 915 MCScenario.node[184].veinsmobility posx ETV
vector 916 MCScenario.node[184].veinsmobility posy ETV
vector 917 MCScenario.node[182].veinsmobility acceleration ETV
vector 918 MCScenario.node[182].veinsmobility co2emission ETV
vector 919 MCScenario.node[183].veinsmobility speed ETV
363	613727 2732 76 186 75 185 111 0.973 10.013545932583 315.38257979649 1364.2678587381
362	616459 3188 76 186 75 185 111 -4.5 2.5852680596057 10.964168027858 176.31192251551
358	619647 3075 75 186 74 185 112 2.5814730371116 13.896397760045 1368.558290459 17349.621201958
351	622722 2686 74 186 73 185 113 1026.65 1798.042649394 159030.26722529 231329542.84744
350	625408 2618 74 186 73 185 113 1023.35 1423.35 145963.15753146 191132274.70243
vector 920 MCScenario.node[183].veinsmobility acceleration ETV
vector 921 MCScenario.node[183].veinsmobility co2emission ETV
vector 922 MCScenario.node[184].veinsmobility speed ETV
vector 923 MCScenario.node[185].veinsmobility posx ETV
vector 924 MCScenario.node[185].veinsmobility posy ETV
vector 925 MCScenario.node[184].veinsmobility acceleration ETV
vector 926 MCScenario.node[184].veinsmobility co2emission ETV
38	628442 4080 10 188 9 187 179 0.973 10.501162557012 526.52178027975 2372.4120760421
37	632522 4834 10 188 9 187 179 -4.5 2.5759216676466 12.305223313277 346.05720815748
34	637356 4657 9 188 8 187 180 1.5130976005225 13.896455254685 2175.0041512114 27333.995667803
26	642013 3873 8 188 7 187 181 450.28416970244 1415.15 200626.02917787 232349600.48031
25	645886 4003 8 188 7 187 181 626.65 1826.65 199368.95360761 257830248.94235
vector 927 MCScenario.node[186].veinsmobility posx ETV
vector 928 MCScenario.node[186].veinsmobility posy ETV
vector 929 MCScenario.node[185].veinsmobility speed ETV
283	650055 3135 59 189 58 188 131 0.973 9.8572975594667 412.72163261728 2060.9949135697
282	653190 3672 59 189 58 188 131 -4.5 2.5832539280877 11.124973406387 351.56203156019
279	656862 3601 58 189 57 188 132 2.0450243328232 13.888421992282 1565.0942405699 19478.842664467
268	660463 2934 57 189 56 188 133 1023.35 1418.4370812714 157153.50922571 187555992.88241
267	663397 3237 57 189 56 188 133 630.22913257957 1426.65 139485.44938333 157074147.54917
vector 930 MCScenario.node[187].veinsmobility posx ETV
vector 931 MCScenario.node[187].veinsmobility posy ETV
vector 932 MCScenario.node[188].veinsmobility posx ETV
vector 933 MCScenario.node[188].veinsmobility posy ETV
vector 934 MCScenario.node[185].veinsmobility acceleration ETV
vector 935 MCScenario.node[185].veinsmobility co2emission ETV
vector 936 MCScenario.node[186].veinsmobility speed ETV
553	667035 1930 113 190 112 189 78 0.973 9.1072604634904 214.26833506191 884.32729992056
552	668965 2271 113 190 112 189 78 -4.5 2.5634856089018 11.042412156472 100.7161936182
547	671236 2207 112 190 111 189 79 1.7030337068019 13.893801108468 980.21465152297 12625.285594805
539	673443 2057 111 190 110 189 80 426.65 1206.8192056597 57546.348833467 46816334.456857
538	675500 1681 111 190 110 189 80 434.85 623.35 47651.437352232 28650063.295746
vector 937 MCScenario.node[186].veinsmobility acceleration ETV
vector 938 MCScenario.node[186].veinsmobility co2emission ETV
vector 939 MCScenario.node[187].veinsmobility speed ETV
vector 940 MCScenario.node[188].veinsmobility speed ETV
470	677418 2373 97 191 96 190 95 0.973 9.9517321978918 277.02581259214 1235.8244719605
469	679791 2756 97 191 96 190 95 -4.5 2.5982197670499 12.310266464832 172.16961923241
466	682547 2669 96 191 95 190 96 1.4015094614122 13.899361743871 1170.4903029919 14852.713585605
456	685216 2376 95 191 94 190 97 50.191472934307 823.35 46439.525185244 28926705.91883
[...]
4008	13971122 1133 804 847 803 846 44 0.973 9.0657196567062 135.45205754464 608.65571648557
4009	13972255 1270 804 847 803 846 44 2.1494344874052 13.881428708136 538.85788124036 6874.0255245893
4010	13973525 1110 805 847 804 846 43 1529.125104362 1816.65 71695.044634214 119827111.47519
4011	13974635 993 805 847 804 846 43 23.35 223.35 4036.4735288458 669792.05147604
4012	13975628 1276 805 847 804 846 43 -4.5 2.5035983401351 10.683503671386 67.028533178339
4013	13976904 1146 805 847 804 846 43 0.973 7.8618713135687 133.34436802202 584.59538260446
4014	13978050 1241 805 847 804 846 43 2.3639308392536 13.870751468651 536.61724481189 6935.9572738831
4015	13979291 930 806 847 805 846 42 1423.35 1481.0323332434 60007.619503014 85741807.640595
4016	13980221 1156 806 847 805 846 42 1630.9782761068 1826.65 73290.649613829 128081316.06787
4017	13981377 1273 806 847 805 846 42 -1.0708572756499 2.5888266401133 10.772480172012 32.604900008612
4018	13982650 1116 806 847 805 846 42 0.973 7.1105341334832 116.30241150647 455.65996256584
4019	13983766 1209 806 847 805 846 42 1.4223913036985 13.888776558102 497.55950168398 6258.6007462907
4020	13984975 869 807 847 806 846 41 1423.35 1426.65 58423.756420331 83252191.244435
4021	13985844 1169 807 847 806 846 41 29.135413157371 281.35108333518 5837.6808150185 1049336.7567146
4022	13987013 1221 807 847 806 846 41 -4.5 2.4841040463885 12.29221474228 72.549157754859
4023	13988234 1058 807 847 806 846 41 0.973 8.5095732539432 129.74854552283 621.3441561937
4024	13989292 1186 807 847 806 846 41 2.3065665770322 13.816290173028 455.01206576739 5431.2311725032
4025	13990478 760 808 847 807 846 40 26.65 26.65 1066 28408.9
4026	13991238 1139 808 847 807 846 40 1353.3641164045 1816.65 64129.157356856 103676052.64991
4027	13992377 1179 808 847 807 846 40 -4.5 2.465488254535 10.383165946999 121.62717731534
4028	13993556 1055 808 847 807 846 40 0.973 9.121875080075 137.54705825505 714.48988777166
4029	13994611 1157 808 847 807 846 40 1.5647967144148 13.882173483353 455.08023664858 5628.5395788647
4030	13995768 976 809 847 808 846 39 1615.144491829 1826.65 69038.353283602 122425907.26704
4031	13996744 939 809 847 808 846 39 623.35 815.15 26527.582408684 18249178.557354
4032	13997683 1171 809 847 808 846 39 -4.4407808210002 2.4993281535804 11.694356598984 86.859722426713
4033	13998854 1058 809 847 808 846 39 0.973 8.2889032386748 122.05483242704 557.35501918416
4034	13999912 1130 809 847 808 846 39 1.6387268689927 13.897220789501 475.98668078014 6078.7100492146
4035	14001042 1134 810 847 809 846 38 -4.5 2.5787666456308 11.062070315634 63.314730910131
4036	14002176 991 810 847 809 846 38 0.973 9.6429864613947 118.27985946128 552.12597575573
4037	14003167 1097 810 847 809 846 38 1.9982033306733 13.831328475662 412.31050070351 4878.2755818786
4038	14004264 713 811 847 810 846 37 23.35 26.65 920.64398336121 23006.324339202
4039	14004977 1053 811 847 810 846 37 606.90515600078 821.14821874135 26477.345205281 19104073.502538
4040	14006030 785 811 847 810 846 37 1823.35 1826.65 67529.245025191 123248718.24502
4041	14006815 1055 811 847 810 846 37 27.196784622819 238.84911809904 4937.4070873425 814149.12196314
4042	14007870 1097 811 847 810 846 37 -4.5 2.5296142865438 9.4867892018694 126.63697700199
4043	14008967 982 811 847 810 846 37 0.973 9.2460994466728 127.86499737182 647.11741820725
4044	14009949 888 812 847 811 846 36 34.85 226.65 5860.1732344408 1150959.6195952
4045	14010837 883 812 847 811 846 36 837.38773567956 1026.65 35504.881723732 35146450.474871
4046	14011720 1040 812 847 811 846 36 2.5603901557857 13.872692966391 416.30505331153 5141.0272391807
4047	14012760 1040 812 847 811 846 36 2.1220733340364 13.867997114523 415.42134029648 5128.7833483274
4048	14013800 876 813 847 812 846 35 1434.85 1626.65 54729.522616658 85770716.618581
4049	14014676 863 813 847 812 846 35 1028.1849169189 1226.65 41355.770995349 49009856.140362
4050	14015539 1044 813 847 812 846 35 -3.0977932816837 2.307670883229 10.179819156532 57.293709782425
4051	14016583 901 813 847 812 846 35 0.973 8.1864524654695 109.49306168515 497.64531132003
4052	14017484 1049 813 847 812 846 35 -4.436830774066 2.4573115327861 10.980148863397 77.116754977661
4053	14018533 882 813 847 812 846 35 0.973 8.4531555479004 115.67629000867 568.87423371728
4054	14019415 1009 813 847 812 846 35 1.7178940091748 13.749550077785 392.08359491849 4761.5696589885
4055	14020424 968 814 847 813 846 34 434.85 809.68577792898 20362.275904795 12697052.315404
4056	14021392 714 814 847 813 846 34 1826.65 1826.65 62106.1 113446107.565
4057	14022106 1016 814 847 813 846 34 -4.3773097984493 2.3297753507737 11.783436588873 69.787978513125
4058	14023122 913 814 847 813 846 34 0.973 8.4661316256337 108.67964923073 486.08956649709
4059	14024035 983 814 847 813 846 34 2.0178282873705 13.896024725004 401.22076735562 5040.5837388393
4060	14025018 760 815 847 814 846 33 26.65 208.38468585781 2225.1353772189 264477.23229515
4061	14025778 812 815 847 814 846 33 426.65 615.15 16252.767003406 8181923.2839714
4062	14026590 973 815 847 814 846 33 -4.5 2.2582733834395 11.417855987162 65.409014595375
4063	14027563 866 815 847 814 846 33 0.973 7.6948547047954 112.4653673716 532.10310037865
4064	14028429 954 815 847 814 846 33 1.5684786266647 13.832418828621 388.30187797546 4911.9030813333
4065	14029383 737 816 847 815 846 32 23.35 176.67302551819 1703.8669102948 163834.13213144
4066	14030120 814 816 847 815 846 32 1234.85 1426.65 43361.424544672 58937141.585903
4067	14030934 965 816 847 815 846 32 -0.98539572816808 2.1407853432698 11.897621419816 27.211699151182
4068	14031899 835 816 847 815 846 32 0.973 7.7233710050995 90.944644404378 374.20579082482
4069	14032734 926 816 847 815 846 32 1.3702595804119 13.845173047762 377.15587915952 4735.8843212395
4070	14033660 780 817 847 816 846 31 423.35 615.15 15311.019615583 7733218.6535021
4071	14034440 726 817 847 816 846 31 823.35 969.85531726281 26405.50053236 22556468.451349
4072	14035166 916 817 847 816 846 31 -4.5 2.5057671231916 6.7509337212971 50.75274045874
4073	14036082 827 817 847 816 846 31 0.973 9.0025715434982 88.004103436521 353.32066784601
4074	14036909 895 817 847 816 846 31 1.5325872578193 13.865030005225 355.72984266249 4407.7510618129
4075	14037804 772 818 847 817 846 30 1034.85 1223.35 34480.186279965 39792787.597872
4076	14038576 689 818 847 817 846 30 226.65 343.0650639454 7370.989678174 1846510.0808267
4077	14039265 894 818 847 817 846 30 -2.9460433992092 2.4856808545766 11.554229886481 48.802295724497
4078	14040159 783 818 847 817 846 30 0.973 9.3028591844076 95.530988096881 457.16732430979
4079	14040942 870 818 847 817 846 30 1.5915255786851 13.889042850072 349.31353640778 4345.2206422898
4080	14041812 855 819 847 818 846 29 -4.5 2.4883745864732 11.896693566279 65.653393223344
4081	14042667 747 819 847 818 846 29 0.973 8.2004012078763 100.98124534583 524.73966965139
4082	14043414 839 819 847 818 846 29 1.5583026900655 13.819041068433 317.33734198715 3814.3869464335
4083	14044253 837 820 847 819 846 28 -3.6724266638397 2.4104712347966 12.063975351676 62.945233402245
4084	14045090 761 820 847 819 846 28 0.973 9.4222054988432 96.127984141905 463.55170426605
4085	14045851 630 821 847 820 846 27 1026.65 1127.5437996562 28160.926583358 29396115.155093
4086	14046481 702 821 847 820 846 27 1026.65 1215.15 29920.23244591 33302973.540919
4087	14047183 540 821 847 820 846 27 626.65 626.65 16919.55 10602636.0075
4088	14047723 763 821 847 820 846 27 1323.6809747335 1615.15 40222.910067946 60163012.456492
4089	14048486 546 822 847 821 846 26 1423.35 1426.65 37069.8 52852750.785
4090	14049032 736 822 847 821 846 26 1231.6371706901 1415.15 34316.025012725 45393418.969412
4091	14049768 753 822 847 821 846 26 1.9482640164206 13.868499996793 301.14360096294 3773.9960496489
4092	14050521 751 822 847 821 846 26 2.5205727670342 13.757220071112 304.92320765944 3822.6558362173
4093	14051272 573 823 847 822 846 25 1348.9836895607 1423.35 35338.026600469 49961803.837829
4094	14051845 659 823 847 822 846 25 1034.85 1223.35 28359.307571029 32302466.021116
4095	14052504 572 823 847 822 846 25 1748.543985363 1823.35 45333.127484103 82214758.682672
4096	14053076 653 823 847 822 846 25 434.85 623.35 13367.039361459 7280219.5201346
4097	14053729 757 823 847 822 846 25 -1.1030915186973 2.1417735560099 11.001537290332 25.695413871841
4098	14054486 661 823 847 822 846 25 0.973 7.5262632302251 75.372434798253 320.47915781961
4099	14055147 751 823 847 822 846 25 -0.83581266072579 2.058726184722 10.933609625907 21.813987006486
4100	14055898 665 823 847 822 846 25 0.973 6.2645588990992 75.006017145679 297.81716550028
4101	14056563 723 823 847 822 846 25 2.0802029424114 13.883416499547 284.70303170958 3479.1669300873
4102	14057286 643 824 847 823 846 24 1223.35 1415.15 31601.71989472 41739067.202357
4103	14057929 505 824 847 823 846 24 23.35 64.41958131598 653.04027615357 20170.722747195
4104	14058434 701 824 847 823 846 24 -4.5 2.4708022191888 11.306563043222 57.967057662267
4105	14059135 624 824 847 823 846 24 0.973 8.2927878303003 86.046938115157 444.93865948223
4106	14059759 693 824 847 823 846 24 1.481965975021 13.829138212628 274.51521128917 3435.7630284978
4107	14060452 693 824 847 823 846 24 1.3396224453812 13.65859767017 275.18684699615 3458.8091118368
4108	14061145 515 825 847 824 846 23 1423.35 1437.5525515138 32759.334316755 46659964.864957
4109	14061660 628 825 847 824 846 23 234.85 426.65 7512.8461595015 2569063.3688463
4110	14062288 688 825 847 824 846 23 -0.80820729921106 2.536302570207 11.366934874863 25.38616355697
4111	14062976 615 825 847 824 846 23 0.973 8.3697557600666 72.062502421642 298.6691413688
4112	14063591 695 825 847 824 846 23 -0.72809024376329 2.4601315520937 11.74120991372 26.875351480691
4113	14064286 616 825 847 824 846 23 0.973 9.8484370751019 68.537866427564 315.61376057347
4114	14064902 667 825 847 824 846 23 1.3368467922788 13.843484768644 243.53078796509 2891.1230225809
4115	14065569 449 826 847 825 846 22 223.35 226.65 4920.5153274898 1100541.1281556
4116	14066018 622 826 847 825 846 22 1234.85 1420.5756171797 29118.647227044 38641447.979338
4117	14066640 651 826 847 825 846 22 -4.3773319013417 2.5675436556339 11.80435985683 74.092143269124
4118	14067291 578 826 847 825 846 22 0.973 10.419759464683 86.230307967 502.13088208872
4119	14067869 637 826 847 825 846 22 2.0285146898823 13.551547381026 213.46726047298 2381.875807019
4120	14068506 399 827 847 826 846 21 26.65 26.65 559.65 14914.6725
4121	14068905 593 827 847 826 846 21 1199.1393882415 1415.15 27821.76171109 36966642.118855
4122	14069498 613 827 847 826 846 21 -4.5 2.4720893742749 7.916194269336 66.106771137341
4123	14070111 558 827 847 826 846 21 0.973 9.3063633113514 70.372921402359 341.27862775668
4124	14070669 606 827 847 826 846 21 1.517192644719 13.526794189774 215.78685096074 2485.6367850799
4125	14071275 400 828 847 827 846 20 623.35 623.35 12467 7771304.45
4126	14071675 562 828 847 827 846 20 1634.85 1819.5141906747 34307.895581199 58935269.335091
4127	14072237 592 828 847 827 846 20 -3.8560014403076 2.5881749737542 10.795998818165 68.27796658076
4128	14072829 549 828 847 827 846 20 0.973 9.4993169186488 73.726942814929 417.83267377031
4129	14073378 579 828 847 827 846 20 2.5229565571994 13.869147824869 229.30285402471 2846.7015915436
4130	14073957 532 829 847 828 846 19 1232.9374236246 1415.15 25438.787376067 34133338.708244
4131	14074489 361 829 847 828 846 19 23.35 23.35 443.65 10359.2275
4132	14074850 570 829 847 828 846 19 -1.1218849354889 2.2733649468282 10.769285708992 26.241318765407
4133	14075420 500 829 847 828 846 19 0.973 8.3860028003862 65.039245783219 312.76200711798
4134	14075920 548 829 847 828 846 19 0.48590454455708 13.864193078829 185.15009521925 2167.5369512641
4135	14076468 378 830 847 829 846 18 1626.65 1626.65 29279.7 47627824.005
4136	14076846 504 830 847 829 846 18 444.64215433623 615.15 9859.6297819619 5459347.5247402
4137	14077350 524 830 847 829 846 18 -4.5 2.5119419456227 -1.6534181534894 76.135001496094
4138	14077874 451 830 847 829 846 18 0.973 9.2242599167338 58.235102272878 292.81961643455
4139	14078325 521 830 847 829 846 18 1.6459261585493 13.870735034347 186.74056581626 2198.4622184496
4140	14078846 340 831 847 830 846 17 626.65 626.65 10653.05 6675733.7825
4141	14079186 477 831 847 830 846 17 1458.4014516537 1615.15 26424.167217749 41120039.237382
4142	14079663 508 831 847 830 846 17 -4.0076542577283 2.5985280391993 2.8820632823013 57.950061428635
4143	14080171 423 831 847 830 846 17 0.973 9.7866687733104 55.209059856005 284.98090662373
4144	14080594 488 831 847 830 846 17 1.503380969679 13.748170831753 180.71058392007 2155.5676105037
4145	14081082 478 832 847 831 846 16 -3.1223230264488 2.5993433884578 8.6993572866206 35.668606144142
4146	14081560 424 832 847 831 846 16 0.973 8.0503212425917 53.286433165524 265.06844139145
4147	14081984 463 832 847 831 846 16 1.5332575274864 13.819879102637 169.64609079065 2042.6245689743
4148	14082447 315 833 847 832 846 15 1223.35 1223.35 18350.25 22448778.3375
4149	14082762 419 833 847 832 846 15 1434.85 1567.6993720698 22271.420894257 33097620.909529
4150	14083181 414 833 847 832 846 15 88.406063913763 215.15 2520.4096346068 451283.26969009
4151	14083595 300 833 847 832 846 15 623.35 623.35 9350.25 5828478.3375
4152	14083895 447 833 847 832 846 15 -0.85906740941573 2.4895057769958 11.364284916827 26.399347742627
4153	14084342 394 833 847 832 846 15 0.973 7.1124288727321 54.171353410899 272.67202279752
4154	14084736 294 834 847 833 846 14 1626.65 1626.65 22773.1 37043863.115
4155	14085030 388 834 847 833 846 14 899.39956357342 1015.15 13609.288401594 13250741.977356
4156	14085418 406 834 847 833 846 14 2.2293434840627 13.819335660967 146.15421794835 1750.6225408943
4157	14085824 406 834 847 833 846 14 1.8241653236095 13.711521452107 139.98014423491 1638.4564770806
4158	14086230 260 835 847 834 846 13 223.35 223.35 2903.55 648507.8925
4159	14086490 359 835 847 834 846 13 234.85 335.55282778994 3523.2543272 969787.32019801
4160	14086849 388 835 847 834 846 13 -0.51535765787121 2.156066399673 11.075502394442 20.615454929598
4161	14087237 356 835 847 834 846 13 0.973 7.7449215917739 47.596845045179 234.45607259529
4162	14087593 387 835 847 834 846 13 -0.56607927964069 2.5988071190892 11.412042825064 23.652534916204
4163	14087980 357 835 847 834 846 13 0.973 9.5072849117409 47.299154692104 257.96882120897
4164	14088337 377 835 847 834 846 13 1.6335207975935 13.493643701565 128.56193085127 1461.2297630724
4165	14088714 356 836 847 835 846 12 -0.6332456830889 2.4252842095448 11.17797362709 20.645743832127
4166	14089070 328 836 847 835 846 12 0.973 5.9731301918683 44.448601660628 197.08371219887
4167	14089398 348 836 847 835 846 12 1.5120779868681 13.249782477319 113.33676203277 1260.3615644478
4168	14089746 303 837 847 836 846 11 1138.8431892217 1215.15 13078.485363768 15556971.241098
4169	14090049 220 837 847 836 846 11 223.35 223.35 2456.85 548737.4475
4170	14090269 220 837 847 836 846 11 223.35 223.35 2456.85 548737.4475
4171	14090489 301 837 847 836 846 11 1234.85 1320.8334959967 13930.135610788 17650300.771778
4172	14090790 325 837 847 836 846 11 -0.4478934961604 2.5055091419024 11.121856255969 21.649627054754
4173	14091115 308 837 847 836 846 11 0.973 7.6664803354162 40.987462104528 201.34518769993
4174	14091423 288 838 847 837 846 10 1.8030473286984 13.683240911458 89.990051689721 984.23366005329
4175	14091711 289 838 847 837 846 10 2.582790917228 13.324807055295 99.25103689949 1126.4248737947
4176	14092000 180 839 847 838 846 9 226.65 226.65 2039.85 462332.0025
4177	14092180 244 839 847 838 846 9 1361.1058112835 1415.15 12577.578809137 17580356.962349
4178	14092424 244 839 847 838 846 9 958.06141044509 1015.15 8960.5215081882 8924592.5757957
4179	14092668 180 839 847 838 846 9 823.35 823.35 7410.15 6101147.0025
4180	14092848 265 839 847 838 846 9 -0.18247065725736 2.2767964308616 11.880193582759 21.796502600812
4181	14093113 256 839 847 838 846 9 1.360573272249 9.09111993052 40.122191733724 224.10424813545
4182	14093369 266 839 847 838 846 9 -0.49917327286676 2.291632025782 10.684749985579 21.731863150147
4183	14093635 249 839 847 838 846 9 0.973 8.5122133362018 39.524933937431 215.41881848662
4184	14093884 168 840 847 839 846 8 1023.35 1023.35 8186.8 8377961.78
4185	14094052 213 840 847 839 846 8 234.85 272.48906435906 1979.3520629088 491078.42109726
4186	14094265 232 840 847 839 846 8 1.3210903372383 13.745997578418 67.790186294913 724.66715874991
4187	14094497 227 840 847 839 846 8 2.3702676308108 13.88852061748 69.817598304292 726.44162406811
4188	14094724 184 841 847 840 846 7 784.72719550042 815.15 5634.4290866962 4536054.2342134
4189	14094908 140 841 847 840 846 7 823.35 823.35 5763.45 4745336.5575
4190	14095048 202 841 847 840 846 7 0.16535743023269 2.5912641801639 12.42490724118 25.941756022656
4191	14095250 203 841 847 840 846 7 2.5608399586233 8.3076564405745 37.444235406595 226.58014988377
4192	14095453 202 841 847 840 846 7 -1.1595118680969 2.30289603048 10.358741118573 24.33417886294
4193	14095655 192 841 847 840 846 7 0.973 9.7355629261356 36.181286166936 232.00173839056
4194	14095847 203 841 847 840 846 7 1.7051208619494 12.980426813359 50.619491172419 460.30298659111
4195	14096050 171 842 847 841 846 6 1.3629763032543 2.2731712559471 11.27530595141 21.745718066197
4196	14096221 174 842 847 841 846 6 3.0949013102759 9.0493395192436 32.027978825284 195.11813906183
4197	14096395 173 842 847 841 846 6 2.1249943073606 12.78964766867 43.21245216825 387.66906771358
4198	14096568 129 843 847 842 846 5 1234.85 1247.0444732265 6195.1225591693 7676017.3874445
4199	14096697 105 843 847 842 846 5 1426.65 1426.65 7133.25 10176651.1125
4200	14096802 144 843 847 842 846 5 1.350277951546 2.5824165770318 10.664653361309 23.762596984106
4201	14096946 145 843 847 842 846 5 3.2967791072592 9.5595058492259 29.925530122774 209.09233073121
4202	14097091 99 844 847 843 846 4 1234.85 1241.931961565 4948.9092344677 6122959.0921982
4203	14097190 84 844 847 843 846 4 1626.65 1626.65 6506.6 10583960.89
4204	14097274 115 844 847 843 846 4 2.1646696130512 7.265670984704 19.460144211166 108.66177486125
4205	14097389 69 845 847 844 846 3 813.12466778732 815.15 2443.4246677873 1990110.7703642
4206	14097458 60 845 847 844 846 3 823.35 823.35 2470.05 2033715.6675
4207	14097518 68 845 847 844 846 3 212.6629064006 215.15 642.9629064006 137804.55675875
4208	14097586 63 845 847 844 846 3 1823.35 1823.35 5470.05 9973815.6675
4209	14097649 87 845 847 844 846 3 1.3323101799702 2.1840771036688 5.1010013716528 9.0562450183544
4210	14097736 87 845 847 844 846 3 3.2251042206188 4.2706299005143 11.112132613686 41.717915037956
4211	14097823 86 845 847 844 846 3 2.4272729026387 7.1982535098447 14.28021507489 79.372633879815
4212	14097909 42 846 847 845 846 2 1215.15 1215.15 2430.3 2953179.045
4213	14097951 42 846 847 845 846 2 1823.35 1823.35 3646.7 6649210.445
4214	14097993 58 846 847 845 846 2 2.2274157597683 2.5435648474377 4.770980607206 11.431103099985
4215	14098051 57 846 847 845 846 2 3.842528884455 5.9042220225233 9.7467509069783 49.62486591912
4216	14098108 57 846 847 845 846 2 2.025332212681 3.5326888478128 5.5580210604938 16.581861067184
4217	14098165 58 846 847 845 846 2 2.4870935993968 3.8904349739198 6.3775285733165 21.321118858458
4218	14098223 21 847 847 846 846 1 1034.85 1034.85 1034.85 1070914.5225
4219	14098244 20 847 847 846 846 1 626.65 626.65 626.65 392690.2225
4220	14098264 29 847 847 846 846 1 1.5073566351319 1.5073566351319 1.5073566351319 2.2721240254761
4221	14098293 28 847 847 846 846 1 2.567819966235 2.567819966235 2.567819966235 6.5936993789952
4222	14098321 28 847 847 846 846 1 1.403341374523 1.403341374523 1.403341374523 1.9693670134481
4223	14098349 29 847 847 846 846 1 2.6188798014431 2.6188798014431 2.6188798014431 6.8585314144066
4224	14098378 29 847 847 846 846 1 1.3595389720518 1.3595389720518 1.3595389720518 1.8483462165277

