version 2
run General-0-20190101-21:04:29-17437
attr configname General
attr datetime 20190101-21:04:29
attr experiment General
attr inifile omnetpp.ini
attr iterationvars ""
attr iterationvarsf ""
attr measurement ""
attr network ManhattanSimulation.MCScenario
attr processid 17437
attr repetition 0
attr replication #0
attr resultdir results
attr runnumber 0
attr seedset 0
param **.debug false
param **.coreDebug false
param *.playgroundSizeX 2500m
param *.playgroundSizeY 2500m
param *.playgroundSizeZ 50m
param *.annotations.draw true
param *.manager.updateInterval 1s
param *.manager.host "\"localhost\""
param *.manager.port 9998
param *.manager.autoShutdown true
param *.manager.launchConfig "xmldoc(\"manhattan.launchd.xml\")"
param *.rsu[0].mobility.x 2000
param *.rsu[0].mobility.y 2000
param *.rsu[0].mobility.z 3
param *.rsu[*].applType "\"CNNApp.CNNAppRSU\""
param *.rsu[*].appl.headerLength "80 bit"
param *.rsu[*].appl.sendBeacons false
param *.rsu[*].appl.dataOnSch false
param *.rsu[*].appl.beaconInterval 1s
param *.rsu[*].appl.beaconUserPriority 7
param *.rsu[*].appl.dataUserPriority 5
param *.connectionManager.sendDirect true
param *.connectionManager.maxInterfDist 2600m
param *.connectionManager.drawMaxIntfDist false
param *.**.nic.mac1609_4.useServiceChannel false
param *.**.nic.mac1609_4.txPower 20mW
param *.**.nic.mac1609_4.bitrate 6Mbps
param *.**.nic.phy80211p.sensitivity -89dBm
param *.**.nic.phy80211p.useThermalNoise true
param *.**.nic.phy80211p.thermalNoise -110dBm
param *.**.nic.phy80211p.decider "xmldoc(\"config.xml\")"
param *.**.nic.phy80211p.analogueModels "xmldoc(\"config.xml\")"
param *.**.nic.phy80211p.usePropagationDelay true
param *.**.nic.phy80211p.antenna "xmldoc(\"antenna.xml\", \"/root/Antenna[@id='monopole']\")"
param *.node[*].applType "\"CNNApp.CNNAppCar\""
param *.node[*].appl.headerLength "80 bit"
param *.node[*].appl.sendBeacons false
param *.node[*].appl.dataOnSch false
param *.node[*].appl.beaconInterval 1s
param *.node[*].veinsmobilityType.debug true
param *.node[*].veinsmobility.x -1
param *.node[*].veinsmobility.y -1
param *.node[*].veinsmobility.z 1.895
param *.**.nic.mac1609_4.useServiceChannel true
param *.node[*].appl.dataOnSch true
param *.rsu[*].appl.dataOnSch true

scalar MCScenario.node[11].appl generatedWSMs 0
scalar MCScenario.node[11].appl receivedWSMs 0
scalar MCScenario.node[11].appl generatedBSMs 0
scalar MCScenario.node[11].appl receivedBSMs 0
scalar MCScenario.node[11].appl generatedWSAs 0
scalar MCScenario.node[11].appl receivedWSAs 0
scalar MCScenario.node[11].nic.phy80211p busyTime 0
scalar MCScenario.node[11].nic.mac1609_4 ReceivedUnicastPackets 0
scalar MCScenario.node[11].nic.mac1609_4 ReceivedBroadcasts 0
scalar MCScenario.node[11].nic.mac1609_4 SentPackets 0
scalar MCScenario.node[11].nic.mac1609_4 SNIRLostPackets 0
scalar MCScenario.node[11].nic.mac1609_4 RXTXLostPackets 0
scalar MCScenario.node[11].nic.mac1609_4 TotalLostPackets 0
scalar MCScenario.node[11].nic.mac1609_4 DroppedPacketsInMac 0
scalar MCScenario.node[11].nic.mac1609_4 TooLittleTime 0
scalar MCScenario.node[11].nic.mac1609_4 TimesIntoBackoff 0
scalar MCScenario.node[11].nic.mac1609_4 SlotsBackoff 0
scalar MCScenario.node[11].nic.mac1609_4 NumInternalContention 0
scalar MCScenario.node[11].nic.mac1609_4 totalBusyTime 0
scalar MCScenario.node[11].veinsmobility startTime 12
scalar MCScenario.node[11].veinsmobility totalTime 17
scalar MCScenario.node[11].veinsmobility stopTime 30
scalar MCScenario.node[11].veinsmobility minSpeed 1.426621987205
scalar MCScenario.node[11].veinsmobility maxSpeed 13.627203119709
scalar MCScenario.node[11].veinsmobility totalDistance 180.21889221959
scalar MCScenario.node[11].veinsmobility totalCO2Emission 53.729775457427
scalar MCScenario.node[24].appl generatedWSMs 0
scalar MCScenario.node[24].appl receivedWSMs 0
scalar MCScenario.node[24].appl generatedBSMs 0
scalar MCScenario.node[24].appl receivedBSMs 0
scalar MCScenario.node[24].appl generatedWSAs 0
scalar MCScenario.node[24].appl receivedWSAs 0
scalar MCScenario.node[24].nic.phy80211p busyTime 0
scalar MCScenario.node[24].nic.mac1609_4 ReceivedUnicastPackets 0
scalar MCScenario.node[24].nic.mac1609_4 ReceivedBroadcasts 0
scalar MCScenario.node[24].nic.mac1609_4 SentPackets 0
scalar MCScenario.node[24].nic.mac1609_4 SNIRLostPackets 0
scalar MCScenario.node[24].nic.mac1609_4 RXTXLostPackets 0
scalar MCScenario.node[24].nic.mac1609_4 TotalLostPackets 0
scalar MCScenario.node[24].nic.mac1609_4 DroppedPacketsInMac 0
scalar MCScenario.node[24].nic.mac1609_4 TooLittleTime 0
scalar MCScenario.node[24].nic.mac1609_4 TimesIntoBackoff 0
scalar MCScenario.node[24].nic.mac1609_4 SlotsBackoff 0
scalar MCScenario.node[24].nic.mac1609_4 NumInternalContention 0
scalar MCScenario.node[24].nic.mac1609_4 totalBusyTime 0
scalar MCScenario.node[24].veinsmobility startTime 25
scalar MCScenario.node[24].veinsmobility totalTime 46
scalar MCScenario.node[24].veinsmobility stopTime 72
scalar MCScenario.node[24].veinsmobility minSpeed 1.6613277133089
scalar MCScenario.node[24].veinsmobility maxSpeed 13.897315978981
scalar MCScenario.node[24].veinsmobility totalDistance 572.7732140372
scalar MCScenario.node[24].veinsmobility totalCO2Emission 126.80213388129
scalar MCScenario.node[62].appl generatedWSMs 0
scalar MCScenario.node[62].appl receivedWSMs 0
scalar MCScenario.node[62].appl generatedBSMs 0
scalar MCScenario.node[62].appl receivedBSMs 0
scalar MCScenario.node[62].appl generatedWSAs 0
scalar MCScenario.node[62].appl receivedWSAs 0
scalar MCScenario.node[62].nic.phy80211p busyTime 0
scalar MCScenario.node[62].nic.mac1609_4 ReceivedUnicastPackets 0
scalar MCScenario.node[62].nic.mac1609_4 ReceivedBroadcasts 0
scalar MCScenario.node[62].nic.mac1609_4 SentPackets 0
scalar MCScenario.node[62].nic.mac1609_4 SNIRLostPackets 0
scalar MCScenario.node[62].nic.mac1609_4 RXTXLostPackets 0
scalar MCScenario.node[62].nic.mac1609_4 TotalLostPackets 0
scalar MCScenario.node[62].nic.mac1609_4 DroppedPacketsInMac 0
scalar MCScenario.node[62].nic.mac1609_4 TooLittleTime 0
scalar MCScenario.node[62].nic.mac1609_4 TimesIntoBackoff 0
scalar MCScenario.node[62].nic.mac1609_4 SlotsBackoff 0
scalar MCScenario.node[62].nic.mac1609_4 NumInternalContention 0
scalar MCScenario.node[62].nic.mac1609_4 totalBusyTime 0
scalar MCScenario.node[62].veinsmobility startTime 63
scalar MCScenario.node[62].veinsmobility totalTime 16
scalar MCScenario.node[62].veinsmobility stopTime 80
scalar MCScenario.node[62].veinsmobility minSpeed 2.0347253717016
scalar MCScenario.node[62].veinsmobility maxSpeed 13.788467015512
scalar MCScenario.node[62].veinsmobility totalDistance 173.95194898953
scalar MCScenario.node[62].veinsmobility totalCO2Emission 56.290972625423
scalar MCScenario.node[43].appl generatedWSMs 0
scalar MCScenario.node[43].appl receivedWSMs 0
scalar MCScenario.node[43].appl generatedBSMs 0
scalar MCScenario.node[43].appl receivedBSMs 0
scalar MCScenario.node[43].appl generatedWSAs 0
scalar MCScenario.node[43].appl receivedWSAs 0
scalar MCScenario.node[43].nic.phy80211p busyTime 0
scalar MCScenario.node[43].nic.mac1609_4 ReceivedUnicastPackets 0
scalar MCScenario.node[43].nic.mac1609_4 ReceivedBroadcasts 0
scalar MCScenario.node[43].nic.mac1609_4 SentPackets 0
scalar MCScenario.node[43].nic.mac1609_4 SNIRLostPackets 0
scalar MCScenario.node[43].nic.mac1609_4 RXTXLostPackets 0
scalar MCScenario.node[43].nic.mac1609_4 TotalLostPackets 0
scalar MCScenario.node[43].nic.mac1609_4 DroppedPacketsInMac 0
scalar MCScenario.node[43].nic.mac1609_4 TooLittleTime 0
scalar MCScenario.node[43].nic.mac1609_4 TimesIntoBackoff 0
scalar MCScenario.node[43].nic.mac1609_4 SlotsBackoff 0
scalar MCScenario.node[43].nic.mac1609_4 NumInternalContention 0
scalar MCScenario.node[43].nic.mac1609_4 totalBusyTime 0
scalar MCScenario.node[43].veinsmobility startTime 44
scalar MCScenario.node[43].veinsmobility totalTime 51
scalar MCScenario.node[43].veinsmobility stopTime 96
scalar MCScenario.node[43].veinsmobility minSpeed 2.1465825429419
scalar MCScenario.node[43].veinsmobility maxSpeed 13.85717091721
scalar MCScenario.node[43].veinsmobility totalDistance 570.77367054956
scalar MCScenario.node[43].veinsmobility totalCO2Emission 160.44332304031
scalar MCScenario.node[73].appl generatedWSMs 0
scalar MCScenario.node[73].appl receivedWSMs 0
scalar MCScenario.node[73].appl generatedBSMs 0
scalar MCScenario.node[73].appl receivedBSMs 0
scalar MCScenario.node[73].appl generatedWSAs 0
scalar MCScenario.node[73].appl receivedWSAs 0
scalar MCScenario.node[73].nic.phy80211p busyTime 0
scalar MCScenario.node[73].nic.mac1609_4 ReceivedUnicastPackets 0
scalar MCScenario.node[73].nic.mac1609_4 ReceivedBroadcasts 0
scalar MCScenario.node[73].nic.mac1609_4 SentPackets 0
scalar MCScenario.node[73].nic.mac1609_4 SNIRLostPackets 0
scalar MCScenario.node[73].nic.mac1609_4 RXTXLostPackets 0
scalar MCScenario.node[73].nic.mac1609_4 TotalLostPackets 0
scalar MCScenario.node[73].nic.mac1609_4 DroppedPacketsInMac 0
scalar MCScenario.node[73].nic.mac1609_4 TooLittleTime 0
scalar MCScenario.node[73].nic.mac1609_4 TimesIntoBackoff 0
scalar MCScenario.node[73].nic.mac1609_4 SlotsBackoff 0
scalar MCScenario.node[73].nic.mac1609_4 NumInternalContention 0
scalar MCScenario.node[73].nic.mac1609_4 totalBusyTime 0
scalar MCScenario.node[73].veinsmobility startTime 74
scalar MCScenario.node[73].veinsmobility totalTime 32
scalar MCScenario.node[73].veinsmobility stopTime 107
scalar MCScenario.node[73].veinsmobility minSpeed 1.7443409819622
scalar MCScenario.node[73].veinsmobility maxSpeed 13.830238221074
scalar MCScenario.node[73].veinsmobility totalDistance 384.75731629101
scalar MCScenario.node[73].veinsmobility totalCO2Emission 89.159670577083
scalar MCScenario.node[54].appl generatedWSMs 0
scalar MCScenario.node[54].appl receivedWSMs 0
scalar MCScenario.node[54].appl generatedBSMs 0
scalar MCScenario.node[54].appl receivedBSMs 0
scalar MCScenario.node[54].appl generatedWSAs 0
scalar MCScenario.node[54].appl receivedWSAs 0
scalar MCScenario.node[54].nic.phy80211p busyTime 0
scalar MCScenario.node[54].nic.mac1609_4 ReceivedUnicastPackets 0
scalar MCScenario.node[54].nic.mac1609_4 ReceivedBroadcasts 0
scalar MCScenario.node[54].nic.mac1609_4 SentPackets 0
scalar MCScenario.node[54].nic.mac1609_4 SNIRLostPackets 0
scalar MCScenario.node[54].nic.mac1609_4 RXTXLostPackets 0
scalar MCScenario.node[54].nic.mac1609_4 TotalLostPackets 0
scalar MCScenario.node[54].nic.mac1609_4 DroppedPacketsInMac 0
scalar MCScenario.node[54].nic.mac1609_4 TooLittleTime 0
scalar MCScenario.node[54].nic.mac1609_4 TimesIntoBackoff 0
scalar MCScenario.node[54].nic.mac1609_4 SlotsBackoff 0
scalar MCScenario.node[54].nic.mac1609_4 NumInternalContention 0
scalar MCScenario.node[54].nic.mac1609_4 totalBusyTime 0
scalar MCScenario.node[54].veinsmobility startTime 55
scalar MCScenario.node[54].veinsmobility totalTime 51
scalar MCScenario.node[54].veinsmobility stopTime 107
scalar MCScenario.node[54].veinsmobility minSpeed 1.3823977574008
scalar MCScenario.node[54].veinsmobility maxSpeed 13.856679396331
scalar MCScenario.node[54].veinsmobility totalDistance 578.70354617254
scalar MCScenario.node[54].veinsmobility totalCO2Emission 160.70961466589
scalar MCScenario.node[10].appl generatedWSMs 0
scalar MCScenario.node[10].appl receivedWSMs 0
scalar MCScenario.node[10].appl generatedBSMs 0
scalar MCScenario.node[10].appl receivedBSMs 0
scalar MCScenario.node[10].appl generatedWSAs 0
scalar MCScenario.node[10].appl receivedWSAs 0
scalar MCScenario.node[10].nic.phy80211p busyTime 0
scalar MCScenario.node[10].nic.mac1609_4 ReceivedUnicastPackets 0
scalar MCScenario.node[10].nic.mac1609_4 ReceivedBroadcasts 0
scalar MCScenario.node[10].nic.mac1609_4 SentPackets 0
scalar MCScenario.node[10].nic.mac1609_4 SNIRLostPackets 0
scalar MCScenario.node[10].nic.mac1609_4 RXTXLostPackets 0
scalar MCScenario.node[10].nic.mac1609_4 TotalLostPackets 0
scalar MCScenario.node[10].nic.mac1609_4 DroppedPacketsInMac 0
scalar MCScenario.node[10].nic.mac1609_4 TooLittleTime 0
scalar MCScenario.node[10].nic.mac1609_4 TimesIntoBackoff 0
scalar MCScenario.node[10].nic.mac1609_4 SlotsBackoff 0
scalar MCScenario.node[10].nic.mac1609_4 NumInternalContention 0
scalar MCScenario.node[10].nic.mac1609_4 totalBusyTime 0
scalar MCScenario.node[10].veinsmobility startTime 11
scalar MCScenario.node[10].veinsmobility totalTime 96
scalar MCScenario.node[10].veinsmobility stopTime 108
scalar MCScenario.node[10].veinsmobility minSpeed 2.318484536279
scalar MCScenario.node[10].veinsmobility maxSpeed 13.839151740004
scalar MCScenario.node[10].veinsmobility totalDistance 1159.3151993598
scalar MCScenario.node[10].veinsmobility totalCO2Emission 282.08901890056
scalar MCScenario.node[63].appl generatedWSMs 0
scalar MCScenario.node[63].appl receivedWSMs 0
scalar MCScenario.node[63].appl generatedBSMs 0
scalar MCScenario.node[63].appl receivedBSMs 0
scalar MCScenario.node[63].appl generatedWSAs 0
scalar MCScenario.node[63].appl receivedWSAs 0
scalar MCScenario.node[63].nic.phy80211p busyTime 0
scalar MCScenario.node[63].nic.mac1609_4 ReceivedUnicastPackets 0
scalar MCScenario.node[63].nic.mac1609_4 ReceivedBroadcasts 0
scalar MCScenario.node[63].nic.mac1609_4 SentPackets 0
scalar MCScenario.node[63].nic.mac1609_4 SNIRLostPackets 0
scalar MCScenario.node[63].nic.mac1609_4 RXTXLostPackets 0
scalar MCScenario.node[63].nic.mac1609_4 TotalLostPackets 0
scalar MCScenario.node[63].nic.mac1609_4 DroppedPacketsInMac 0
scalar MCScenario.node[63].nic.mac1609_4 TooLittleTime 0
scalar MCScenario.node[63].nic.mac1609_4 TimesIntoBackoff 0
scalar MCScenario.node[63].nic.mac1609_4 SlotsBackoff 0
scalar MCScenario.node[63].nic.mac1609_4 NumInternalContention 0
scalar MCScenario.node[63].nic.mac1609_4 totalBusyTime 0
scalar MCScenario.node[63].veinsmobility startTime 64
scalar MCScenario.node[63].veinsmobility totalTime 48
scalar MCScenario.node[63].veinsmobility stopTime 113
scalar MCScenario.node[63].veinsmobility minSpeed 1.6207878435263
scalar MCScenario.node[63].veinsmobility maxSpeed 13.852301157918
scalar MCScenario.node[63].veinsmobility totalDistance 567.58246073593
scalar MCScenario.node[63].veinsmobility totalCO2Emission 140.99532526502
scalar MCScenario.node[0].appl generatedWSMs 0
scalar MCScenario.node[0].appl receivedWSMs 0
scalar MCScenario.node[0].appl generatedBSMs 0
scalar MCScenario.node[0].appl receivedBSMs 0
scalar MCScenario.node[0].appl generatedWSAs 0
scalar MCScenario.node[0].appl receivedWSAs 0
scalar MCScenario.node[0].nic.phy80211p busyTime 0
scalar MCScenario.node[0].nic.mac1609_4 ReceivedUnicastPackets 0
scalar MCScenario.node[0].nic.mac1609_4 ReceivedBroadcasts 0
scalar MCScenario.node[0].nic.mac1609_4 SentPackets 0
scalar MCScenario.node[0].nic.mac1609_4 SNIRLostPackets 0
scalar MCScenario.node[0].nic.mac1609_4 RXTXLostPackets 0
scalar MCScenario.node[0].nic.mac1609_4 TotalLostPackets 0
scalar MCScenario.node[0].nic.mac1609_4 DroppedPacketsInMac 0
scalar MCScenario.node[0].nic.mac1609_4 TooLittleTime 0
scalar MCScenario.node[0].nic.mac1609_4 TimesIntoBackoff 0
scalar MCScenario.node[0].nic.mac1609_4 SlotsBackoff 0
scalar MCScenario.node[0].nic.mac1609_4 NumInternalContention 0
scalar MCScenario.node[0].nic.mac1609_4 totalBusyTime 0
scalar MCScenario.node[0].veinsmobility startTime 1
scalar MCScenario.node[0].veinsmobility totalTime 113
scalar MCScenario.node[0].veinsmobility stopTime 115
scalar MCScenario.node[0].veinsmobility minSpeed 1.8865424470045
scalar MCScenario.node[0].veinsmobility maxSpeed 13.886573710549
scalar MCScenario.node[0].veinsmobility totalDistance 1369.1144806972
scalar MCScenario.node[0].veinsmobility totalCO2Emission 328.12371132677
scalar MCScenario.node[20].appl generatedWSMs 0
scalar MCScenario.node[20].appl receivedWSMs 0
scalar MCScenario.node[20].appl generatedBSMs 0
scalar MCScenario.node[20].appl receivedBSMs 0
scalar MCScenario.node[20].appl generatedWSAs 0
scalar MCScenario.node[20].appl receivedWSAs 0
scalar MCScenario.node[20].nic.phy80211p busyTime 0
scalar MCScenario.node[20].nic.mac1609_4 ReceivedUnicastPackets 0
scalar MCScenario.node[20].nic.mac1609_4 ReceivedBroadcasts 0
scalar MCScenario.node[20].nic.mac1609_4 SentPackets 0
scalar MCScenario.node[20].nic.mac1609_4 SNIRLostPackets 0
scalar MCScenario.node[20].nic.mac1609_4 RXTXLostPackets 0
scalar MCScenario.node[20].nic.mac1609_4 TotalLostPackets 0
scalar MCScenario.node[20].nic.mac1609_4 DroppedPacketsInMac 0
scalar MCScenario.node[20].nic.mac1609_4 TooLittleTime 0
scalar MCScenario.node[20].nic.mac1609_4 TimesIntoBackoff 0
scalar MCScenario.node[20].nic.mac1609_4 SlotsBackoff 0
scalar MCScenario.node[20].nic.mac1609_4 NumInternalContention 0
scalar MCScenario.node[20].nic.mac1609_4 totalBusyTime 0
scalar MCScenario.node[20].veinsmobility startTime 21
scalar MCScenario.node[20].veinsmobility totalTime 96
scalar MCScenario.node[20].veinsmobility stopTime 118
scalar MCScenario.node[20].veinsmobility minSpeed 2.0845425395062
scalar MCScenario.node[20].veinsmobility maxSpeed 13.893090447993
scalar MCScenario.node[20].veinsmobility totalDistance 1170.5552376099
scalar MCScenario.node[20].veinsmobility totalCO2Emission 289.18284778846
scalar MCScenario.node[16].appl generatedWSMs 0
scalar MCScenario.node[16].appl receivedWSMs 0
scalar MCScenario.node[16].appl generatedBSMs 0
scalar MCScenario.node[16].appl receivedBSMs 0
scalar MCScenario.node[16].appl generatedWSAs 0
scalar MCScenario.node[16].appl receivedWSAs 0
scalar MCScenario.node[16].nic.phy80211p busyTime 0
scalar MCScenario.node[16].nic.mac1609_4 ReceivedUnicastPackets 0
scalar MCScenario.node[16].nic.mac1609_4 ReceivedBroadcasts 0
scalar MCScenario.node[16].nic.mac1609_4 SentPackets 0
scalar MCScenario.node[16].nic.mac1609_4 SNIRLostPackets 0
scalar MCScenario.node[16].nic.mac1609_4 RXTXLostPackets 0
scalar MCScenario.node[16].nic.mac1609_4 TotalLostPackets 0
scalar MCScenario.node[16].nic.mac1609_4 DroppedPacketsInMac 0
scalar MCScenario.node[16].nic.mac1609_4 TooLittleTime 0
scalar MCScenario.node[16].nic.mac1609_4 TimesIntoBackoff 0
scalar MCScenario.node[16].nic.mac1609_4 SlotsBackoff 0
scalar MCScenario.node[16].nic.mac1609_4 NumInternalContention 0
scalar MCScenario.node[16].nic.mac1609_4 totalBusyTime 0
scalar MCScenario.node[16].veinsmobility startTime 17
scalar MCScenario.node[16].veinsmobility totalTime 101
scalar MCScenario.node[16].veinsmobility stopTime 119
scalar MCScenario.node[16].veinsmobility minSpeed 2.2323509526905
scalar MCScenario.node[16].veinsmobility maxSpeed 13.85931971916
scalar MCScenario.node[16].veinsmobility totalDistance 1174.908823779
scalar MCScenario.node[16].veinsmobility totalCO2Emission 305.62769975939
scalar MCScenario.node[9].appl generatedWSMs 0
scalar MCScenario.node[9].appl receivedWSMs 0
scalar MCScenario.node[9].appl generatedBSMs 0
scalar MCScenario.node[9].appl receivedBSMs 0
scalar MCScenario.node[9].appl generatedWSAs 0
scalar MCScenario.node[9].appl receivedWSAs 0
scalar MCScenario.node[9].nic.phy80211p busyTime 0
scalar MCScenario.node[9].nic.mac1609_4 ReceivedUnicastPackets 0
scalar MCScenario.node[9].nic.mac1609_4 ReceivedBroadcasts 0
scalar MCScenario.node[9].nic.mac1609_4 SentPackets 0
scalar MCScenario.node[9].nic.mac1609_4 SNIRLostPackets 0
scalar MCScenario.node[9].nic.mac1609_4 RXTXLostPackets 0
scalar MCScenario.node[9].nic.mac1609_4 TotalLostPackets 0
scalar MCScenario.node[9].nic.mac1609_4 DroppedPacketsInMac 0
scalar MCScenario.node[9].nic.mac1609_4 TooLittleTime 0
scalar MCScenario.node[9].nic.mac1609_4 TimesIntoBackoff 0
scalar MCScenario.node[9].nic.mac1609_4 SlotsBackoff 0
scalar MCScenario.node[9].nic.mac1609_4 NumInternalContention 0
scalar MCScenario.node[9].nic.mac1609_4 totalBusyTime 0
scalar MCScenario.node[9].veinsmobility startTime 10
scalar MCScenario.node[9].veinsmobility totalTime 109
scalar MCScenario.node[9].veinsmobility stopTime 120
scalar MCScenario.node[9].veinsmobility minSpeed 1.3719304058002
scalar MCScenario.node[9].veinsmobility maxSpeed 13.893895873288
scalar MCScenario.node[9].veinsmobility totalDistance 1370.0951002566
scalar MCScenario.node[9].veinsmobility totalCO2Emission 293.75374415383
scalar MCScenario.node[14].appl generatedWSMs 0
scalar MCScenario.node[14].appl receivedWSMs 0
scalar MCScenario.node[14].appl generatedBSMs 0
scalar MCScenario.node[14].appl receivedBSMs 0
scalar MCScenario.node[14].appl generatedWSAs 0
scalar MCScenario.node[14].appl receivedWSAs 0
scalar MCScenario.node[14].nic.phy80211p busyTime 0
scalar MCScenario.node[14].nic.mac1609_4 ReceivedUnicastPackets 0
scalar MCScenario.node[14].nic.mac1609_4 ReceivedBroadcasts 0
scalar MCScenario.node[14].nic.mac1609_4 SentPackets 0
scalar MCScenario.node[14].nic.mac1609_4 SNIRLostPackets 0
scalar MCScenario.node[14].nic.mac1609_4 RXTXLostPackets 0
scalar MCScenario.node[14].nic.mac1609_4 TotalLostPackets 0
scalar MCScenario.node[14].nic.mac1609_4 DroppedPacketsInMac 0
scalar MCScenario.node[14].nic.mac1609_4 TooLittleTime 0
scalar MCScenario.node[14].nic.mac1609_4 TimesIntoBackoff 0
scalar MCScenario.node[14].nic.mac1609_4 SlotsBackoff 0
scalar MCScenario.node[14].nic.mac1609_4 NumInternalContention 0
scalar MCScenario.node[14].nic.mac1609_4 totalBusyTime 0
scalar MCScenario.node[14].veinsmobility startTime 15
scalar MCScenario.node[14].veinsmobility totalTime 109
scalar MCScenario.node[14].veinsmobility stopTime 125
scalar MCScenario.node[14].veinsmobility minSpeed 1.7744234598242
scalar MCScenario.node[14].veinsmobility maxSpeed 13.896519810846
scalar MCScenario.node[14].veinsmobility totalDistance 1353.2418381091
scalar MCScenario.node[14].veinsmobility totalCO2Emission 295.83845894343
scalar MCScenario.node[72].appl generatedWSMs 0
scalar MCScenario.node[72].appl receivedWSMs 0
scalar MCScenario.node[72].appl generatedBSMs 0
scalar MCScenario.node[72].appl receivedBSMs 0
scalar MCScenario.node[72].appl generatedWSAs 0
scalar MCScenario.node[72].appl receivedWSAs 0
scalar MCScenario.node[72].nic.phy80211p busyTime 0
scalar MCScenario.node[72].nic.mac1609_4 ReceivedUnicastPackets 0
scalar MCScenario.node[72].nic.mac1609_4 ReceivedBroadcasts 0
scalar MCScenario.node[72].nic.mac1609_4 SentPackets 0
scalar MCScenario.node[72].nic.mac1609_4 SNIRLostPackets 0
scalar MCScenario.node[72].nic.mac1609_4 RXTXLostPackets 0
scalar MCScenario.node[72].nic.mac1609_4 TotalLostPackets 0
scalar MCScenario.node[72].nic.mac1609_4 DroppedPacketsInMac 0
scalar MCScenario.node[72].nic.mac1609_4 TooLittleTime 0
scalar MCScenario.node[72].nic.mac1609_4 TimesIntoBackoff 0
scalar MCScenario.node[72].nic.mac1609_4 SlotsBackoff 0
scalar MCScenario.node[72].nic.mac1609_4 NumInternalContention 0
scalar MCScenario.node[72].nic.mac1609_4 totalBusyTime 0
scalar MCScenario.node[72].veinsmobility startTime 74
scalar MCScenario.node[72].veinsmobility totalTime 50
scalar MCScenario.node[72].veinsmobility stopTime 125
scalar MCScenario.node[72].veinsmobility minSpeed 1.6034316292964
scalar MCScenario.node[72].veinsmobility maxSpeed 13.810824115085
scalar MCScenario.node[72].veinsmobility totalDistance 569.39683863395
scalar MCScenario.node[72].veinsmobility totalCO2Emission 158.90936464824
scalar MCScenario.node[7].appl generatedWSMs 0
scalar MCScenario.node[7].appl receivedWSMs 0
scalar MCScenario.node[7].appl generatedBSMs 0
scalar MCScenario.node[7].appl receivedBSMs 0
scalar MCScenario.node[7].appl generatedWSAs 0
scalar MCScenario.node[7].appl receivedWSAs 0
scalar MCScenario.node[7].nic.phy80211p busyTime 0
scalar MCScenario.node[7].nic.mac1609_4 ReceivedUnicastPackets 0
scalar MCScenario.node[7].nic.mac1609_4 ReceivedBroadcasts 0
scalar MCScenario.node[7].nic.mac1609_4 SentPackets 0
scalar MCScenario.node[7].nic.mac1609_4 SNIRLostPackets 0
scalar MCScenario.node[7].nic.mac1609_4 RXTXLostPackets 0
scalar MCScenario.node[7].nic.mac1609_4 TotalLostPackets 0
scalar MCScenario.node[7].nic.mac1609_4 DroppedPacketsInMac 0
scalar MCScenario.node[7].nic.mac1609_4 TooLittleTime 0
scalar MCScenario.node[7].nic.mac1609_4 TimesIntoBackoff 0
scalar MCScenario.node[7].nic.mac1609_4 SlotsBackoff 0
scalar MCScenario.node[7].nic.mac1609_4 NumInternalContention 0
scalar MCScenario.node[7].nic.mac1609_4 totalBusyTime 0
scalar MCScenario.node[7].veinsmobility startTime 8
scalar MCScenario.node[7].veinsmobility totalTime 117
scalar MCScenario.node[7].veinsmobility stopTime 126
scalar MCScenario.node[7].veinsmobility minSpeed 1.3556982993847
scalar MCScenario.node[7].veinsmobility maxSpeed 13.883259562473
scalar MCScenario.node[7].veinsmobility totalDistance 1369.382686586
scalar MCScenario.node[7].veinsmobility totalCO2Emission 360.01121513213
scalar MCScenario.node[44].appl generatedWSMs 0
scalar MCScenario.node[44].appl receivedWSMs 0
scalar MCScenario.node[44].appl generatedBSMs 0
scalar MCScenario.node[44].appl receivedBSMs 0
scalar MCScenario.node[44].appl generatedWSAs 0
scalar MCScenario.node[44].appl receivedWSAs 0
scalar MCScenario.node[44].nic.phy80211p busyTime 0
scalar MCScenario.node[44].nic.mac1609_4 ReceivedUnicastPackets 0
scalar MCScenario.node[44].nic.mac1609_4 ReceivedBroadcasts 0
scalar MCScenario.node[44].nic.mac1609_4 SentPackets 0
scalar MCScenario.node[44].nic.mac1609_4 SNIRLostPackets 0
scalar MCScenario.node[44].nic.mac1609_4 RXTXLostPackets 0
scalar MCScenario.node[44].nic.mac1609_4 TotalLostPackets 0
scalar MCScenario.node[44].nic.mac1609_4 DroppedPacketsInMac 0
scalar MCScenario.node[44].nic.mac1609_4 TooLittleTime 0
scalar MCScenario.node[44].nic.mac1609_4 TimesIntoBackoff 0
scalar MCScenario.node[44].nic.mac1609_4 SlotsBackoff 0
scalar MCScenario.node[44].nic.mac1609_4 NumInternalContention 0
scalar MCScenario.node[44].nic.mac1609_4 totalBusyTime 0
scalar MCScenario.node[44].veinsmobility startTime 46
scalar MCScenario.node[44].veinsmobility totalTime 79
scalar MCScenario.node[44].veinsmobility stopTime 126
scalar MCScenario.node[44].veinsmobility minSpeed 1.9361824263353
scalar MCScenario.node[44].veinsmobility maxSpeed 13.892836426361
scalar MCScenario.node[44].veinsmobility totalDistance 969.97299916516
scalar MCScenario.node[44].veinsmobility totalCO2Emission 220.18996535279
scalar MCScenario.node[41].appl generatedWSMs 0
scalar MCScenario.node[41].appl receivedWSMs 0
scalar MCScenario.node[41].appl generatedBSMs 0
scalar MCScenario.node[41].appl receivedBSMs 0
scalar MCScenario.node[41].appl generatedWSAs 0
scalar MCScenario.node[41].appl receivedWSAs 0
scalar MCScenario.node[41].nic.phy80211p busyTime 0
scalar MCScenario.node[41].nic.mac1609_4 ReceivedUnicastPackets 0
scalar MCScenario.node[41].nic.mac1609_4 ReceivedBroadcasts 0
scalar MCScenario.node[41].nic.mac1609_4 SentPackets 0
scalar MCScenario.node[41].nic.mac1609_4 SNIRLostPackets 0
scalar MCScenario.node[41].nic.mac1609_4 RXTXLostPackets 0
scalar MCScenario.node[41].nic.mac1609_4 TotalLostPackets 0
scalar MCScenario.node[41].nic.mac1609_4 DroppedPacketsInMac 0
scalar MCScenario.node[41].nic.mac1609_4 TooLittleTime 0
scalar MCScenario.node[41].nic.mac1609_4 TimesIntoBackoff 0
scalar MCScenario.node[41].nic.mac1609_4 SlotsBackoff 0
scalar MCScenario.node[41].nic.mac1609_4 NumInternalContention 0
scalar MCScenario.node[41].nic.mac1609_4 totalBusyTime 0
scalar MCScenario.node[41].veinsmobility startTime 43
scalar MCScenario.node[41].veinsmobility totalTime 83
scalar MCScenario.node[41].veinsmobility stopTime 127
scalar MCScenario.node[41].veinsmobility minSpeed 1.5658048289595
scalar MCScenario.node[41].veinsmobility maxSpeed 13.857440742361
scalar MCScenario.node[41].veinsmobility totalDistance 961.72535168954
scalar MCScenario.node[41].veinsmobility totalCO2Emission 263.8477481523
scalar MCScenario.node[17].appl generatedWSMs 0
scalar MCScenario.node[17].appl receivedWSMs 0
scalar MCScenario.node[17].appl generatedBSMs 0
scalar MCScenario.node[17].appl receivedBSMs 0
scalar MCScenario.node[17].appl generatedWSAs 0
scalar MCScenario.node[17].appl receivedWSAs 0
scalar MCScenario.node[17].nic.phy80211p busyTime 0
scalar MCScenario.node[17].nic.mac1609_4 ReceivedUnicastPackets 0
scalar MCScenario.node[17].nic.mac1609_4 ReceivedBroadcasts 0
scalar MCScenario.node[17].nic.mac1609_4 SentPackets 0
scalar MCScenario.node[17].nic.mac1609_4 SNIRLostPackets 0
scalar MCScenario.node[17].nic.mac1609_4 RXTXLostPackets 0
scalar MCScenario.node[17].nic.mac1609_4 TotalLostPackets 0
scalar MCScenario.node[17].nic.mac1609_4 DroppedPacketsInMac 0
scalar MCScenario.node[17].nic.mac1609_4 TooLittleTime 0
scalar MCScenario.node[17].nic.mac1609_4 TimesIntoBackoff 0
scalar MCScenario.node[17].nic.mac1609_4 SlotsBackoff 0
scalar MCScenario.node[17].nic.mac1609_4 NumInternalContention 0
scalar MCScenario.node[17].nic.mac1609_4 totalBusyTime 0
scalar MCScenario.node[17].veinsmobility startTime 18
scalar MCScenario.node[17].veinsmobility totalTime 110
scalar MCScenario.node[17].veinsmobility stopTime 129
scalar MCScenario.node[17].veinsmobility minSpeed 2.2549936615629
scalar MCScenario.node[17].veinsmobility maxSpeed 13.899928044528
scalar MCScenario.node[17].veinsmobility totalDistance 1360.0550152248
scalar MCScenario.node[17].veinsmobility totalCO2Emission 296.5862958754
scalar MCScenario.node[27].appl generatedWSMs 0
scalar MCScenario.node[27].appl receivedWSMs 0
scalar MCScenario.node[27].appl generatedBSMs 0
scalar MCScenario.node[27].appl receivedBSMs 0
scalar MCScenario.node[27].appl generatedWSAs 0
scalar MCScenario.node[27].appl receivedWSAs 0
scalar MCScenario.node[27].nic.phy80211p busyTime 0
scalar MCScenario.node[27].nic.mac1609_4 ReceivedUnicastPackets 0
scalar MCScenario.node[27].nic.mac1609_4 ReceivedBroadcasts 0
scalar MCScenario.node[27].nic.mac1609_4 SentPackets 0
scalar MCScenario.node[27].nic.mac1609_4 SNIRLostPackets 0
scalar MCScenario.node[27].nic.mac1609_4 RXTXLostPackets 0
scalar MCScenario.node[27].nic.mac1609_4 TotalLostPackets 0
scalar MCScenario.node[27].nic.mac1609_4 DroppedPacketsInMac 0
scalar MCScenario.node[27].nic.mac1609_4 TooLittleTime 0
scalar MCScenario.node[27].nic.mac1609_4 TimesIntoBackoff 0
scalar MCScenario.node[27].nic.mac1609_4 SlotsBackoff 0
scalar MCScenario.node[27].nic.mac1609_4 NumInternalContention 0
scalar MCScenario.node[27].nic.mac1609_4 totalBusyTime 0
scalar MCScenario.node[27].veinsmobility startTime 28
scalar MCScenario.node[27].veinsmobility totalTime 102
scalar MCScenario.node[27].veinsmobility stopTime 131
scalar MCScenario.node[27].veinsmobility minSpeed 1.797044705064
scalar MCScenario.node[27].veinsmobility maxSpeed 13.893232231098
scalar MCScenario.node[27].veinsmobility totalDistance 1166.518523793
scalar MCScenario.node[27].veinsmobility totalCO2Emission 331.89422434541
scalar MCScenario.node[50].appl generatedWSMs 0
scalar MCScenario.node[50].appl receivedWSMs 0
scalar MCScenario.node[50].appl generatedBSMs 0
scalar MCScenario.node[50].appl receivedBSMs 0
scalar MCScenario.node[50].appl generatedWSAs 0
scalar MCScenario.node[50].appl receivedWSAs 0
scalar MCScenario.node[50].nic.phy80211p busyTime 0
scalar MCScenario.node[50].nic.mac1609_4 ReceivedUnicastPackets 0
scalar MCScenario.node[50].nic.mac1609_4 ReceivedBroadcasts 0
scalar MCScenario.node[50].nic.mac1609_4 SentPackets 0
scalar MCScenario.node[50].nic.mac1609_4 SNIRLostPackets 0
scalar MCScenario.node[50].nic.mac1609_4 RXTXLostPackets 0
scalar MCScenario.node[50].nic.mac1609_4 TotalLostPackets 0
scalar MCScenario.node[50].nic.mac1609_4 DroppedPacketsInMac 0
scalar MCScenario.node[50].nic.mac1609_4 TooLittleTime 0
scalar MCScenario.node[50].nic.mac1609_4 TimesIntoBackoff 0
scalar MCScenario.node[50].nic.mac1609_4 SlotsBackoff 0
scalar MCScenario.node[50].nic.mac1609_4 NumInternalContention 0
scalar MCScenario.node[50].nic.mac1609_4 totalBusyTime 0
scalar MCScenario.node[50].veinsmobility startTime 51
scalar MCScenario.node[50].veinsmobility totalTime 80
scalar MCScenario.node[50].veinsmobility stopTime 132
scalar MCScenario.node[50].veinsmobility minSpeed 2.4826971233124
scalar MCScenario.node[50].veinsmobility maxSpeed 13.865782271465
scalar MCScenario.node[50].veinsmobility totalDistance 968.28280781549
scalar MCScenario.node[50].veinsmobility totalCO2Emission 244.86896114426
scalar MCScenario.node[3].appl generatedWSMs 0
scalar MCScenario.node[3].appl receivedWSMs 0
scalar MCScenario.node[3].appl generatedBSMs 0
scalar MCScenario.node[3].appl receivedBSMs 0
scalar MCScenario.node[3].appl generatedWSAs 0
scalar MCScenario.node[3].appl receivedWSAs 0
scalar MCScenario.node[3].nic.phy80211p busyTime 0
scalar MCScenario.node[3].nic.mac1609_4 ReceivedUnicastPackets 0
scalar MCScenario.node[3].nic.mac1609_4 ReceivedBroadcasts 0
scalar MCScenario.node[3].nic.mac1609_4 SentPackets 0
scalar MCScenario.node[3].nic.mac1609_4 SNIRLostPackets 0
scalar MCScenario.node[3].nic.mac1609_4 RXTXLostPackets 0
scalar MCScenario.node[3].nic.mac1609_4 TotalLostPackets 0
scalar MCScenario.node[3].nic.mac1609_4 DroppedPacketsInMac 0
scalar MCScenario.node[3].nic.mac1609_4 TooLittleTime 0
scalar MCScenario.node[3].nic.mac1609_4 TimesIntoBackoff 0
scalar MCScenario.node[3].nic.mac1609_4 SlotsBackoff 0
scalar MCScenario.node[3].nic.mac1609_4 NumInternalContention 0
scalar MCScenario.node[3].nic.mac1609_4 totalBusyTime 0
scalar MCScenario.node[3].veinsmobility startTime 4
scalar MCScenario.node[3].veinsmobility totalTime 127
scalar MCScenario.node[3].veinsmobility stopTime 132
scalar MCScenario.node[3].veinsmobility minSpeed 1.7893671946833
scalar MCScenario.node[3].veinsmobility maxSpeed 13.872233711788
scalar MCScenario.node[3].veinsmobility totalDistance 1572.1502367545
scalar MCScenario.node[3].veinsmobility totalCO2Emission 341.03295002767
scalar MCScenario.node[39].appl generatedWSMs 0
scalar MCScenario.node[39].appl receivedWSMs 0
scalar MCScenario.node[39].appl generatedBSMs 0
scalar MCScenario.node[39].appl receivedBSMs 0
scalar MCScenario.node[39].appl generatedWSAs 0
scalar MCScenario.node[39].appl receivedWSAs 0
scalar MCScenario.node[39].nic.phy80211p busyTime 0
scalar MCScenario.node[39].nic.mac1609_4 ReceivedUnicastPackets 0
scalar MCScenario.node[39].nic.mac1609_4 ReceivedBroadcasts 0
scalar MCScenario.node[39].nic.mac1609_4 SentPackets 0
scalar MCScenario.node[39].nic.mac1609_4 SNIRLostPackets 0
scalar MCScenario.node[39].nic.mac1609_4 RXTXLostPackets 0
scalar MCScenario.node[39].nic.mac1609_4 TotalLostPackets 0
scalar MCScenario.node[39].nic.mac1609_4 DroppedPacketsInMac 0
scalar MCScenario.node[39].nic.mac1609_4 TooLittleTime 0
scalar MCScenario.node[39].nic.mac1609_4 TimesIntoBackoff 0
scalar MCScenario.node[39].nic.mac1609_4 SlotsBackoff 0
scalar MCScenario.node[39].nic.mac1609_4 NumInternalContention 0
scalar MCScenario.node[39].nic.mac1609_4 totalBusyTime 0
scalar MCScenario.node[39].veinsmobility startTime 40
scalar MCScenario.node[39].veinsmobility totalTime 98
scalar MCScenario.node[39].veinsmobility stopTime 139
scalar MCScenario.node[39].veinsmobility minSpeed 1.4696649069432
scalar MCScenario.node[39].veinsmobility maxSpeed 13.867571851774
scalar MCScenario.node[39].veinsmobility totalDistance 1160.3195576507
scalar MCScenario.node[39].veinsmobility totalCO2Emission 292.91612910137
scalar MCScenario.node[46].appl generatedWSMs 0
scalar MCScenario.node[46].appl receivedWSMs 0
scalar MCScenario.node[46].appl generatedBSMs 0
scalar MCScenario.node[46].appl receivedBSMs 0
scalar MCScenario.node[46].appl generatedWSAs 0
scalar MCScenario.node[46].appl receivedWSAs 0
scalar MCScenario.node[46].nic.phy80211p busyTime 0
scalar MCScenario.node[46].nic.mac1609_4 ReceivedUnicastPackets 0
scalar MCScenario.node[46].nic.mac1609_4 ReceivedBroadcasts 0
scalar MCScenario.node[46].nic.mac1609_4 SentPackets 0
scalar MCScenario.node[46].nic.mac1609_4 SNIRLostPackets 0
scalar MCScenario.node[46].nic.mac1609_4 RXTXLostPackets 0
scalar MCScenario.node[46].nic.mac1609_4 TotalLostPackets 0
scalar MCScenario.node[46].nic.mac1609_4 DroppedPacketsInMac 0
scalar MCScenario.node[46].nic.mac1609_4 TooLittleTime 0
scalar MCScenario.node[46].nic.mac1609_4 TimesIntoBackoff 0
scalar MCScenario.node[46].nic.mac1609_4 SlotsBackoff 0
scalar MCScenario.node[46].nic.mac1609_4 NumInternalContention 0
scalar MCScenario.node[46].nic.mac1609_4 totalBusyTime 0
scalar MCScenario.node[46].veinsmobility startTime 47
scalar MCScenario.node[46].veinsmobility totalTime 92
scalar MCScenario.node[46].veinsmobility stopTime 140
scalar MCScenario.node[46].veinsmobility minSpeed 2.304790837667
scalar MCScenario.node[46].veinsmobility maxSpeed 13.896065559238
scalar MCScenario.node[46].veinsmobility totalDistance 1177.4422705333
scalar MCScenario.node[46].veinsmobility totalCO2Emission 223.1724777699
scalar MCScenario.node[4].appl generatedWSMs 0
scalar MCScenario.node[4].appl receivedWSMs 0
scalar MCScenario.node[4].appl generatedBSMs 0
scalar MCScenario.node[4].appl receivedBSMs 0
scalar MCScenario.node[4].appl generatedWSAs 0
scalar MCScenario.node[4].appl receivedWSAs 0
scalar MCScenario.node[4].nic.phy80211p busyTime 0
scalar MCScenario.node[4].nic.mac1609_4 ReceivedUnicastPackets 0
scalar MCScenario.node[4].nic.mac1609_4 ReceivedBroadcasts 0
scalar MCScenario.node[4].nic.mac1609_4 SentPackets 0
scalar MCScenario.node[4].nic.mac1609_4 SNIRLostPackets 0
scalar MCScenario.node[4].nic.mac1609_4 RXTXLostPackets 0
scalar MCScenario.node[4].nic.mac1609_4 TotalLostPackets 0
scalar MCScenario.node[4].nic.mac1609_4 DroppedPacketsInMac 0
scalar MCScenario.node[4].nic.mac1609_4 TooLittleTime 0
scalar MCScenario.node[4].nic.mac1609_4 TimesIntoBackoff 0
scalar MCScenario.node[4].nic.mac1609_4 SlotsBackoff 0
scalar MCScenario.node[4].nic.mac1609_4 NumInternalContention 0
scalar MCScenario.node[4].nic.mac1609_4 totalBusyTime 0
scalar MCScenario.node[4].veinsmobility startTime 5
scalar MCScenario.node[4].veinsmobility totalTime 135
scalar MCScenario.node[4].veinsmobility stopTime 141
scalar MCScenario.node[4].veinsmobility minSpeed 1.4406950977165
scalar MCScenario.node[4].veinsmobility maxSpeed 13.86800110687
scalar MCScenario.node[4].veinsmobility totalDistance 1557.3895575962
scalar MCScenario.node[4].veinsmobility totalCO2Emission 412.86146284716
scalar MCScenario.node[107].appl generatedWSMs 0
scalar MCScenario.node[107].appl receivedWSMs 0
scalar MCScenario.node[107].appl generatedBSMs 0
scalar MCScenario.node[107].appl receivedBSMs 0
scalar MCScenario.node[107].appl generatedWSAs 0
scalar MCScenario.node[107].appl receivedWSAs 0
scalar MCScenario.node[107].nic.phy80211p busyTime 0
scalar MCScenario.node[107].nic.mac1609_4 ReceivedUnicastPackets 0
scalar MCScenario.node[107].nic.mac1609_4 ReceivedBroadcasts 0
scalar MCScenario.node[107].nic.mac1609_4 SentPackets 0
scalar MCScenario.node[107].nic.mac1609_4 SNIRLostPackets 0
scalar MCScenario.node[107].nic.mac1609_4 RXTXLostPackets 0
scalar MCScenario.node[107].nic.mac1609_4 TotalLostPackets 0
scalar MCScenario.node[107].nic.mac1609_4 DroppedPacketsInMac 0
scalar MCScenario.node[107].nic.mac1609_4 TooLittleTime 0
scalar MCScenario.node[107].nic.mac1609_4 TimesIntoBackoff 0
scalar MCScenario.node[107].nic.mac1609_4 SlotsBackoff 0
scalar MCScenario.node[107].nic.mac1609_4 NumInternalContention 0
scalar MCScenario.node[107].nic.mac1609_4 totalBusyTime 0
scalar MCScenario.node[107].veinsmobility startTime 108
scalar MCScenario.node[107].veinsmobility totalTime 32
scalar MCScenario.node[107].veinsmobility stopTime 141
scalar MCScenario.node[107].veinsmobility minSpeed 1.7021503886674
scalar MCScenario.node[107].veinsmobility maxSpeed 13.839905676129
scalar MCScenario.node[107].veinsmobility totalDistance 379.75795057004
scalar MCScenario.node[107].veinsmobility totalCO2Emission 86.343918951814
scalar MCScenario.node[2].appl generatedWSMs 0
scalar MCScenario.node[2].appl receivedWSMs 0
scalar MCScenario.node[2].appl generatedBSMs 0
scalar MCScenario.node[2].appl receivedBSMs 0
scalar MCScenario.node[2].appl generatedWSAs 0
scalar MCScenario.node[2].appl receivedWSAs 0
scalar MCScenario.node[2].nic.phy80211p busyTime 0
scalar MCScenario.node[2].nic.mac1609_4 ReceivedUnicastPackets 0
scalar MCScenario.node[2].nic.mac1609_4 ReceivedBroadcasts 0
scalar MCScenario.node[2].nic.mac1609_4 SentPackets 0
scalar MCScenario.node[2].nic.mac1609_4 SNIRLostPackets 0
scalar MCScenario.node[2].nic.mac1609_4 RXTXLostPackets 0
scalar MCScenario.node[2].nic.mac1609_4 TotalLostPackets 0
scalar MCScenario.node[2].nic.mac1609_4 DroppedPacketsInMac 0
scalar MCScenario.node[2].nic.mac1609_4 TooLittleTime 0
scalar MCScenario.node[2].nic.mac1609_4 TimesIntoBackoff 0
scalar MCScenario.node[2].nic.mac1609_4 SlotsBackoff 0
scalar MCScenario.node[2].nic.mac1609_4 NumInternalContention 0
scalar MCScenario.node[2].nic.mac1609_4 totalBusyTime 0
scalar MCScenario.node[2].veinsmobility startTime 3
scalar MCScenario.node[2].veinsmobility totalTime 137
scalar MCScenario.node[2].veinsmobility stopTime 141
scalar MCScenario.node[2].veinsmobility minSpeed 0.76941436438634
scalar MCScenario.node[2].veinsmobility maxSpeed 13.897634658171
scalar MCScenario.node[2].veinsmobility totalDistance 1565.9232574018
scalar MCScenario.node[2].veinsmobility totalCO2Emission 414.67978783209
scalar MCScenario.node[1].appl generatedWSMs 0
scalar MCScenario.node[1].appl receivedWSMs 0
scalar MCScenario.node[1].appl generatedBSMs 0
scalar MCScenario.node[1].appl receivedBSMs 0
scalar MCScenario.node[1].appl generatedWSAs 0
scalar MCScenario.node[1].appl receivedWSAs 0
scalar MCScenario.node[1].nic.phy80211p busyTime 0
scalar MCScenario.node[1].nic.mac1609_4 ReceivedUnicastPackets 0
scalar MCScenario.node[1].nic.mac1609_4 ReceivedBroadcasts 0
scalar MCScenario.node[1].nic.mac1609_4 SentPackets 0
scalar MCScenario.node[1].nic.mac1609_4 SNIRLostPackets 0
scalar MCScenario.node[1].nic.mac1609_4 RXTXLostPackets 0
scalar MCScenario.node[1].nic.mac1609_4 TotalLostPackets 0
scalar MCScenario.node[1].nic.mac1609_4 DroppedPacketsInMac 0
scalar MCScenario.node[1].nic.mac1609_4 TooLittleTime 0
scalar MCScenario.node[1].nic.mac1609_4 TimesIntoBackoff 0
scalar MCScenario.node[1].nic.mac1609_4 SlotsBackoff 0
scalar MCScenario.node[1].nic.mac1609_4 NumInternalContention 0
scalar MCScenario.node[1].nic.mac1609_4 totalBusyTime 0
scalar MCScenario.node[1].veinsmobility startTime 2
scalar MCScenario.node[1].veinsmobility totalTime 139
scalar MCScenario.node[1].veinsmobility stopTime 142
scalar MCScenario.node[1].veinsmobility minSpeed 1.6702538255369
scalar MCScenario.node[1].veinsmobility maxSpeed 13.893776405859
scalar MCScenario.node[1].veinsmobility totalDistance 1765.2215513168
scalar MCScenario.node[1].veinsmobility totalCO2Emission 359.11661236206
scalar MCScenario.node[42].appl generatedWSMs 0
scalar MCScenario.node[42].appl receivedWSMs 0
scalar MCScenario.node[42].appl generatedBSMs 0
scalar MCScenario.node[42].appl receivedBSMs 0
scalar MCScenario.node[42].appl generatedWSAs 0
scalar MCScenario.node[42].appl receivedWSAs 0
scalar MCScenario.node[42].nic.phy80211p busyTime 0
scalar MCScenario.node[42].nic.mac1609_4 ReceivedUnicastPackets 0
scalar MCScenario.node[42].nic.mac1609_4 ReceivedBroadcasts 0
scalar MCScenario.node[42].nic.mac1609_4 SentPackets 0
scalar MCScenario.node[42].nic.mac1609_4 SNIRLostPackets 0
scalar MCScenario.node[42].nic.mac1609_4 RXTXLostPackets 0
scalar MCScenario.node[42].nic.mac1609_4 TotalLostPackets 0
scalar MCScenario.node[42].nic.mac1609_4 DroppedPacketsInMac 0
scalar MCScenario.node[42].nic.mac1609_4 TooLittleTime 0
scalar MCScenario.node[42].nic.mac1609_4 TimesIntoBackoff 0
scalar MCScenario.node[42].nic.mac1609_4 SlotsBackoff 0
scalar MCScenario.node[42].nic.mac1609_4 NumInternalContention 0
scalar MCScenario.node[42].nic.mac1609_4 totalBusyTime 0
scalar MCScenario.node[42].veinsmobility startTime 44
scalar MCScenario.node[42].veinsmobility totalTime 98
scalar MCScenario.node[42].veinsmobility stopTime 143
scalar MCScenario.node[42].veinsmobility minSpeed 2.1081760139205
scalar MCScenario.node[42].veinsmobility maxSpeed 13.887289220863
scalar MCScenario.node[42].veinsmobility totalDistance 1164.082257864
scalar MCScenario.node[42].veinsmobility totalCO2Emission 296.38116768011
scalar MCScenario.node[112].appl generatedWSMs 0
scalar MCScenario.node[112].appl receivedWSMs 0
scalar MCScenario.node[112].appl generatedBSMs 0
scalar MCScenario.node[112].appl receivedBSMs 0
scalar MCScenario.node[112].appl generatedWSAs 0
scalar MCScenario.node[112].appl receivedWSAs 0
scalar MCScenario.node[112].nic.phy80211p busyTime 0
scalar MCScenario.node[112].nic.mac1609_4 ReceivedUnicastPackets 0
scalar MCScenario.node[112].nic.mac1609_4 ReceivedBroadcasts 0
scalar MCScenario.node[112].nic.mac1609_4 SentPackets 0
scalar MCScenario.node[112].nic.mac1609_4 SNIRLostPackets 0
scalar MCScenario.node[112].nic.mac1609_4 RXTXLostPackets 0
scalar MCScenario.node[112].nic.mac1609_4 TotalLostPackets 0
scalar MCScenario.node[112].nic.mac1609_4 DroppedPacketsInMac 0
scalar MCScenario.node[112].nic.mac1609_4 TooLittleTime 0
scalar MCScenario.node[112].nic.mac1609_4 TimesIntoBackoff 0
scalar MCScenario.node[112].nic.mac1609_4 SlotsBackoff 0
scalar MCScenario.node[112].nic.mac1609_4 NumInternalContention 0
scalar MCScenario.node[112].nic.mac1609_4 totalBusyTime 0
scalar MCScenario.node[112].veinsmobility startTime 113
scalar MCScenario.node[112].veinsmobility totalTime 32
scalar MCScenario.node[112].veinsmobility stopTime 146
scalar MCScenario.node[112].veinsmobility minSpeed 1.8058654547436
scalar MCScenario.node[112].veinsmobility maxSpeed 13.882810042356
scalar MCScenario.node[112].veinsmobility totalDistance 369.79328917802
scalar MCScenario.node[112].veinsmobility totalCO2Emission 99.080445083615
scalar MCScenario.node[34].appl generatedWSMs 0
scalar MCScenario.node[34].appl receivedWSMs 0
scalar MCScenario.node[34].appl generatedBSMs 0
scalar MCScenario.node[34].appl receivedBSMs 0
scalar MCScenario.node[34].appl generatedWSAs 0
scalar MCScenario.node[34].appl receivedWSAs 0
scalar MCScenario.node[34].nic.phy80211p busyTime 0
scalar MCScenario.node[34].nic.mac1609_4 ReceivedUnicastPackets 0
scalar MCScenario.node[34].nic.mac1609_4 ReceivedBroadcasts 0
scalar MCScenario.node[34].nic.mac1609_4 SentPackets 0
scalar MCScenario.node[34].nic.mac1609_4 SNIRLostPackets 0
scalar MCScenario.node[34].nic.mac1609_4 RXTXLostPackets 0
scalar MCScenario.node[34].nic.mac1609_4 TotalLostPackets 0
scalar MCScenario.node[34].nic.mac1609_4 DroppedPacketsInMac 0
scalar MCScenario.node[34].nic.mac1609_4 TooLittleTime 0
scalar MCScenario.node[34].nic.mac1609_4 TimesIntoBackoff 0
scalar MCScenario.node[34].nic.mac1609_4 SlotsBackoff 0
scalar MCScenario.node[34].nic.mac1609_4 NumInternalContention 0
scalar MCScenario.node[34].nic.mac1609_4 totalBusyTime 0
scalar MCScenario.node[34].veinsmobility startTime 35
scalar MCScenario.node[34].veinsmobility totalTime 110
scalar MCScenario.node[34].veinsmobility stopTime 146
scalar MCScenario.node[34].veinsmobility minSpeed 1.4522820021026
scalar MCScenario.node[34].veinsmobility maxSpeed 13.883207009686
scalar MCScenario.node[34].veinsmobility totalDistance 1365.4855873886
scalar MCScenario.node[34].veinsmobility totalCO2Emission 294.97871395342
scalar MCScenario.node[30].appl generatedWSMs 0
scalar MCScenario.node[30].appl receivedWSMs 0
scalar MCScenario.node[30].appl generatedBSMs 0
scalar MCScenario.node[30].appl receivedBSMs 0
scalar MCScenario.node[30].appl generatedWSAs 0
scalar MCScenario.node[30].appl receivedWSAs 0
scalar MCScenario.node[30].nic.phy80211p busyTime 0
scalar MCScenario.node[30].nic.mac1609_4 ReceivedUnicastPackets 0
scalar MCScenario.node[30].nic.mac1609_4 ReceivedBroadcasts 0
scalar MCScenario.node[30].nic.mac1609_4 SentPackets 0
scalar MCScenario.node[30].nic.mac1609_4 SNIRLostPackets 0
scalar MCScenario.node[30].nic.mac1609_4 RXTXLostPackets 0
scalar MCScenario.node[30].nic.mac1609_4 TotalLostPackets 0
scalar MCScenario.node[30].nic.mac1609_4 DroppedPacketsInMac 0
scalar MCScenario.node[30].nic.mac1609_4 TooLittleTime 0
scalar MCScenario.node[30].nic.mac1609_4 TimesIntoBackoff 0
scalar MCScenario.node[30].nic.mac1609_4 SlotsBackoff 0
scalar MCScenario.node[30].nic.mac1609_4 NumInternalContention 0
scalar MCScenario.node[30].nic.mac1609_4 totalBusyTime 0
scalar MCScenario.node[30].veinsmobility startTime 31
scalar MCScenario.node[30].veinsmobility totalTime 115
scalar MCScenario.node[30].veinsmobility stopTime 147
scalar MCScenario.node[30].veinsmobility minSpeed 1.5074429040309
scalar MCScenario.node[30].veinsmobility maxSpeed 13.878805843578
scalar MCScenario.node[30].veinsmobility totalDistance 1371.0640560944
scalar MCScenario.node[30].veinsmobility totalCO2Emission 332.28051432426
scalar MCScenario.node[84].appl generatedWSMs 0
scalar MCScenario.node[84].appl receivedWSMs 0
scalar MCScenario.node[84].appl generatedBSMs 0
scalar MCScenario.node[84].appl receivedBSMs 0
scalar MCScenario.node[84].appl generatedWSAs 0
scalar MCScenario.node[84].appl receivedWSAs 0
scalar MCScenario.node[84].nic.phy80211p busyTime 0
scalar MCScenario.node[84].nic.mac1609_4 ReceivedUnicastPackets 0
scalar MCScenario.node[84].nic.mac1609_4 ReceivedBroadcasts 0
scalar MCScenario.node[84].nic.mac1609_4 SentPackets 0
scalar MCScenario.node[84].nic.mac1609_4 SNIRLostPackets 0
scalar MCScenario.node[84].nic.mac1609_4 RXTXLostPackets 0
scalar MCScenario.node[84].nic.mac1609_4 TotalLostPackets 0
scalar MCScenario.node[84].nic.mac1609_4 DroppedPacketsInMac 0
scalar MCScenario.node[84].nic.mac1609_4 TooLittleTime 0
scalar MCScenario.node[84].nic.mac1609_4 TimesIntoBackoff 0
scalar MCScenario.node[84].nic.mac1609_4 SlotsBackoff 0
scalar MCScenario.node[84].nic.mac1609_4 NumInternalContention 0
scalar MCScenario.node[84].nic.mac1609_4 totalBusyTime 0
scalar MCScenario.node[84].veinsmobility startTime 85
scalar MCScenario.node[84].veinsmobility totalTime 64
scalar MCScenario.node[84].veinsmobility stopTime 150
scalar MCScenario.node[84].veinsmobility minSpeed 1.8929020554759
scalar MCScenario.node[84].veinsmobility maxSpeed 13.868120549479
scalar MCScenario.node[84].veinsmobility totalDistance 760.72962981368
scalar MCScenario.node[84].veinsmobility totalCO2Emission 189.7361687112
scalar MCScenario.node[85].appl generatedWSMs 0
scalar MCScenario.node[85].appl receivedWSMs 0
scalar MCScenario.node[85].appl generatedBSMs 0
scalar MCScenario.node[85].appl receivedBSMs 0
scalar MCScenario.node[85].appl generatedWSAs 0
scalar MCScenario.node[85].appl receivedWSAs 0
scalar MCScenario.node[85].nic.phy80211p busyTime 0
scalar MCScenario.node[85].nic.mac1609_4 ReceivedUnicastPackets 0
scalar MCScenario.node[85].nic.mac1609_4 ReceivedBroadcasts 0
scalar MCScenario.node[85].nic.mac1609_4 SentPackets 0
scalar MCScenario.node[85].nic.mac1609_4 SNIRLostPackets 0
scalar MCScenario.node[85].nic.mac1609_4 RXTXLostPackets 0
scalar MCScenario.node[85].nic.mac1609_4 TotalLostPackets 0
scalar MCScenario.node[85].nic.mac1609_4 DroppedPacketsInMac 0
scalar MCScenario.node[85].nic.mac1609_4 TooLittleTime 0
scalar MCScenario.node[85].nic.mac1609_4 TimesIntoBackoff 0
scalar MCScenario.node[85].nic.mac1609_4 SlotsBackoff 0
scalar MCScenario.node[85].nic.mac1609_4 NumInternalContention 0
scalar MCScenario.node[85].nic.mac1609_4 totalBusyTime 0
scalar MCScenario.node[85].veinsmobility startTime 86
scalar MCScenario.node[85].veinsmobility totalTime 66
scalar MCScenario.node[85].veinsmobility stopTime 153
scalar MCScenario.node[85].veinsmobility minSpeed 2.2741921420675
scalar MCScenario.node[85].veinsmobility maxSpeed 13.897683376307
scalar MCScenario.node[85].veinsmobility totalDistance 776.68634362503
scalar MCScenario.node[85].veinsmobility totalCO2Emission 203.01999273276
scalar MCScenario.node[59].appl generatedWSMs 0
scalar MCScenario.node[59].appl receivedWSMs 0
scalar MCScenario.node[59].appl generatedBSMs 0
scalar MCScenario.node[59].appl receivedBSMs 0
scalar MCScenario.node[59].appl generatedWSAs 0
scalar MCScenario.node[59].appl receivedWSAs 0
scalar MCScenario.node[59].nic.phy80211p busyTime 0
scalar MCScenario.node[59].nic.mac1609_4 ReceivedUnicastPackets 0
scalar MCScenario.node[59].nic.mac1609_4 ReceivedBroadcasts 0
scalar MCScenario.node[59].nic.mac1609_4 SentPackets 0
scalar MCScenario.node[59].nic.mac1609_4 SNIRLostPackets 0
scalar MCScenario.node[59].nic.mac1609_4 RXTXLostPackets 0
scalar MCScenario.node[59].nic.mac1609_4 TotalLostPackets 0
scalar MCScenario.node[59].nic.mac1609_4 DroppedPacketsInMac 0
scalar MCScenario.node[59].nic.mac1609_4 TooLittleTime 0
scalar MCScenario.node[59].nic.mac1609_4 TimesIntoBackoff 0
scalar MCScenario.node[59].nic.mac1609_4 SlotsBackoff 0
scalar MCScenario.node[59].nic.mac1609_4 NumInternalContention 0
scalar MCScenario.node[59].nic.mac1609_4 totalBusyTime 0
scalar MCScenario.node[59].veinsmobility startTime 60
scalar MCScenario.node[59].veinsmobility totalTime 97
scalar MCScenario.node[59].veinsmobility stopTime 158
scalar MCScenario.node[59].veinsmobility minSpeed 1.4731749021914
scalar MCScenario.node[59].veinsmobility maxSpeed 13.893592135585
scalar MCScenario.node[59].veinsmobility totalDistance 1170.8777388429
scalar MCScenario.node[59].veinsmobility totalCO2Emission 301.68468858183
scalar MCScenario.node[91].appl generatedWSMs 0
scalar MCScenario.node[91].appl receivedWSMs 0
scalar MCScenario.node[91].appl generatedBSMs 0
scalar MCScenario.node[91].appl receivedBSMs 0
scalar MCScenario.node[91].appl generatedWSAs 0
scalar MCScenario.node[91].appl receivedWSAs 0
scalar MCScenario.node[91].nic.phy80211p busyTime 0
scalar MCScenario.node[91].nic.mac1609_4 ReceivedUnicastPackets 0
scalar MCScenario.node[91].nic.mac1609_4 ReceivedBroadcasts 0
scalar MCScenario.node[91].nic.mac1609_4 SentPackets 0
scalar MCScenario.node[91].nic.mac1609_4 SNIRLostPackets 0
scalar MCScenario.node[91].nic.mac1609_4 RXTXLostPackets 0
scalar MCScenario.node[91].nic.mac1609_4 TotalLostPackets 0
scalar MCScenario.node[91].nic.mac1609_4 DroppedPacketsInMac 0
scalar MCScenario.node[91].nic.mac1609_4 TooLittleTime 0
scalar MCScenario.node[91].nic.mac1609_4 TimesIntoBackoff 0
scalar MCScenario.node[91].nic.mac1609_4 SlotsBackoff 0
scalar MCScenario.node[91].nic.mac1609_4 NumInternalContention 0
scalar MCScenario.node[91].nic.mac1609_4 totalBusyTime 0
scalar MCScenario.node[91].veinsmobility startTime 93
scalar MCScenario.node[91].veinsmobility totalTime 65
scalar MCScenario.node[91].veinsmobility stopTime 159
scalar MCScenario.node[91].veinsmobility minSpeed 2.5191080554156
scalar MCScenario.node[91].veinsmobility maxSpeed 13.887978767604
scalar MCScenario.node[91].veinsmobility totalDistance 771.88326169796
scalar MCScenario.node[91].veinsmobility totalCO2Emission 190.19412277759
scalar MCScenario.node[15].appl generatedWSMs 0
scalar MCScenario.node[15].appl receivedWSMs 0
scalar MCScenario.node[15].appl generatedBSMs 0
scalar MCScenario.node[15].appl receivedBSMs 0
scalar MCScenario.node[15].appl generatedWSAs 0
scalar MCScenario.node[15].appl receivedWSAs 0
scalar MCScenario.node[15].nic.phy80211p busyTime 0
scalar MCScenario.node[15].nic.mac1609_4 ReceivedUnicastPackets 0
scalar MCScenario.node[15].nic.mac1609_4 ReceivedBroadcasts 0
scalar MCScenario.node[15].nic.mac1609_4 SentPackets 0
scalar MCScenario.node[15].nic.mac1609_4 SNIRLostPackets 0
scalar MCScenario.node[15].nic.mac1609_4 RXTXLostPackets 0
scalar MCScenario.node[15].nic.mac1609_4 TotalLostPackets 0
scalar MCScenario.node[15].nic.mac1609_4 DroppedPacketsInMac 0
scalar MCScenario.node[15].nic.mac1609_4 TooLittleTime 0
scalar MCScenario.node[15].nic.mac1609_4 TimesIntoBackoff 0
scalar MCScenario.node[15].nic.mac1609_4 SlotsBackoff 0
scalar MCScenario.node[15].nic.mac1609_4 NumInternalContention 0
scalar MCScenario.node[15].nic.mac1609_4 totalBusyTime 0
scalar MCScenario.node[15].veinsmobility startTime 16
scalar MCScenario.node[15].veinsmobility totalTime 146
scalar MCScenario.node[15].veinsmobility stopTime 163
scalar MCScenario.node[15].veinsmobility minSpeed 1.7903000787599
scalar MCScenario.node[15].veinsmobility maxSpeed 13.89330114706
scalar MCScenario.node[15].veinsmobility totalDistance 1774.1879736019
scalar MCScenario.node[15].veinsmobility totalCO2Emission 413.46754461458
scalar MCScenario.node[33].appl generatedWSMs 0
scalar MCScenario.node[33].appl receivedWSMs 0
scalar MCScenario.node[33].appl generatedBSMs 0
scalar MCScenario.node[33].appl receivedBSMs 0
scalar MCScenario.node[33].appl generatedWSAs 0
scalar MCScenario.node[33].appl receivedWSAs 0
scalar MCScenario.node[33].nic.phy80211p busyTime 0
scalar MCScenario.node[33].nic.mac1609_4 ReceivedUnicastPackets 0
scalar MCScenario.node[33].nic.mac1609_4 ReceivedBroadcasts 0
scalar MCScenario.node[33].nic.mac1609_4 SentPackets 0
scalar MCScenario.node[33].nic.mac1609_4 SNIRLostPackets 0
scalar MCScenario.node[33].nic.mac1609_4 RXTXLostPackets 0
scalar MCScenario.node[33].nic.mac1609_4 TotalLostPackets 0
scalar MCScenario.node[33].nic.mac1609_4 DroppedPacketsInMac 0
scalar MCScenario.node[33].nic.mac1609_4 TooLittleTime 0
scalar MCScenario.node[33].nic.mac1609_4 TimesIntoBackoff 0
scalar MCScenario.node[33].nic.mac1609_4 SlotsBackoff 0
scalar MCScenario.node[33].nic.mac1609_4 NumInternalContention 0
scalar MCScenario.node[33].nic.mac1609_4 totalBusyTime 0
scalar MCScenario.node[33].veinsmobility startTime 34
scalar MCScenario.node[33].veinsmobility totalTime 130
scalar MCScenario.node[33].veinsmobility stopTime 165
scalar MCScenario.node[33].veinsmobility minSpeed 2.4431459045503
scalar MCScenario.node[33].veinsmobility maxSpeed 13.880233089486
scalar MCScenario.node[33].veinsmobility totalDistance 1568.2823678422
scalar MCScenario.node[33].veinsmobility totalCO2Emission 375.19664742423
scalar MCScenario.node[53].appl generatedWSMs 0
scalar MCScenario.node[53].appl receivedWSMs 0
scalar MCScenario.node[53].appl generatedBSMs 0
scalar MCScenario.node[53].appl receivedBSMs 0
scalar MCScenario.node[53].appl generatedWSAs 0
scalar MCScenario.node[53].appl receivedWSAs 0
scalar MCScenario.node[53].nic.phy80211p busyTime 0
scalar MCScenario.node[53].nic.mac1609_4 ReceivedUnicastPackets 0
scalar MCScenario.node[53].nic.mac1609_4 ReceivedBroadcasts 0
scalar MCScenario.node[53].nic.mac1609_4 SentPackets 0
scalar MCScenario.node[53].nic.mac1609_4 SNIRLostPackets 0
scalar MCScenario.node[53].nic.mac1609_4 RXTXLostPackets 0
scalar MCScenario.node[53].nic.mac1609_4 TotalLostPackets 0
scalar MCScenario.node[53].nic.mac1609_4 DroppedPacketsInMac 0
scalar MCScenario.node[53].nic.mac1609_4 TooLittleTime 0
scalar MCScenario.node[53].nic.mac1609_4 TimesIntoBackoff 0
scalar MCScenario.node[53].nic.mac1609_4 SlotsBackoff 0
scalar MCScenario.node[53].nic.mac1609_4 NumInternalContention 0
scalar MCScenario.node[53].nic.mac1609_4 totalBusyTime 0
scalar MCScenario.node[53].veinsmobility startTime 55
scalar MCScenario.node[53].veinsmobility totalTime 112
scalar MCScenario.node[53].veinsmobility stopTime 168
scalar MCScenario.node[53].veinsmobility minSpeed 1.9230101361172
scalar MCScenario.node[53].veinsmobility maxSpeed 13.893096935027
scalar MCScenario.node[53].veinsmobility totalDistance 1365.1347734527
scalar MCScenario.node[53].veinsmobility totalCO2Emission 316.56305517671
scalar MCScenario.node[38].appl generatedWSMs 0
scalar MCScenario.node[38].appl receivedWSMs 0
scalar MCScenario.node[38].appl generatedBSMs 0
scalar MCScenario.node[38].appl receivedBSMs 0
scalar MCScenario.node[38].appl generatedWSAs 0
scalar MCScenario.node[38].appl receivedWSAs 0
scalar MCScenario.node[38].nic.phy80211p busyTime 0
scalar MCScenario.node[38].nic.mac1609_4 ReceivedUnicastPackets 0
scalar MCScenario.node[38].nic.mac1609_4 ReceivedBroadcasts 0
scalar MCScenario.node[38].nic.mac1609_4 SentPackets 0
scalar MCScenario.node[38].nic.mac1609_4 SNIRLostPackets 0
scalar MCScenario.node[38].nic.mac1609_4 RXTXLostPackets 0
scalar MCScenario.node[38].nic.mac1609_4 TotalLostPackets 0
scalar MCScenario.node[38].nic.mac1609_4 DroppedPacketsInMac 0
scalar MCScenario.node[38].nic.mac1609_4 TooLittleTime 0
scalar MCScenario.node[38].nic.mac1609_4 TimesIntoBackoff 0
scalar MCScenario.node[38].nic.mac1609_4 SlotsBackoff 0
scalar MCScenario.node[38].nic.mac1609_4 NumInternalContention 0
scalar MCScenario.node[38].nic.mac1609_4 totalBusyTime 0
scalar MCScenario.node[38].veinsmobility startTime 39
scalar MCScenario.node[38].veinsmobility totalTime 130
scalar MCScenario.node[38].veinsmobility stopTime 170
scalar MCScenario.node[38].veinsmobility minSpeed 2.3950780476211
scalar MCScenario.node[38].veinsmobility maxSpeed 13.864050898002
scalar MCScenario.node[38].veinsmobility totalDistance 1558.4438999074
scalar MCScenario.node[38].veinsmobility totalCO2Emission 382.47661901214
scalar MCScenario.node[5].appl generatedWSMs 0
scalar MCScenario.node[5].appl receivedWSMs 0
scalar MCScenario.node[5].appl generatedBSMs 0
scalar MCScenario.node[5].appl receivedBSMs 0
scalar MCScenario.node[5].appl generatedWSAs 0
scalar MCScenario.node[5].appl receivedWSAs 0
scalar MCScenario.node[5].nic.phy80211p busyTime 0
scalar MCScenario.node[5].nic.mac1609_4 ReceivedUnicastPackets 0
scalar MCScenario.node[5].nic.mac1609_4 ReceivedBroadcasts 0
scalar MCScenario.node[5].nic.mac1609_4 SentPackets 0
scalar MCScenario.node[5].nic.mac1609_4 SNIRLostPackets 0
scalar MCScenario.node[5].nic.mac1609_4 RXTXLostPackets 0
scalar MCScenario.node[5].nic.mac1609_4 TotalLostPackets 0
scalar MCScenario.node[5].nic.mac1609_4 DroppedPacketsInMac 0
scalar MCScenario.node[5].nic.mac1609_4 TooLittleTime 0
scalar MCScenario.node[5].nic.mac1609_4 TimesIntoBackoff 0
scalar MCScenario.node[5].nic.mac1609_4 SlotsBackoff 0
scalar MCScenario.node[5].nic.mac1609_4 NumInternalContention 0
scalar MCScenario.node[5].nic.mac1609_4 totalBusyTime 0
scalar MCScenario.node[5].veinsmobility startTime 6
scalar MCScenario.node[5].veinsmobility totalTime 168
scalar MCScenario.node[5].veinsmobility stopTime 175
scalar MCScenario.node[5].veinsmobility minSpeed 0.32759681227965
scalar MCScenario.node[5].veinsmobility maxSpeed 13.87386018429
scalar MCScenario.node[5].veinsmobility totalDistance 1966.6345913153
scalar MCScenario.node[5].veinsmobility totalCO2Emission 514.42354522251
scalar MCScenario.node[21].appl generatedWSMs 0
scalar MCScenario.node[21].appl receivedWSMs 0
scalar MCScenario.node[21].appl generatedBSMs 0
scalar MCScenario.node[21].appl receivedBSMs 0
scalar MCScenario.node[21].appl generatedWSAs 0
scalar MCScenario.node[21].appl receivedWSAs 0
scalar MCScenario.node[21].nic.phy80211p busyTime 0
scalar MCScenario.node[21].nic.mac1609_4 ReceivedUnicastPackets 0
scalar MCScenario.node[21].nic.mac1609_4 ReceivedBroadcasts 0
scalar MCScenario.node[21].nic.mac1609_4 SentPackets 0
scalar MCScenario.node[21].nic.mac1609_4 SNIRLostPackets 0
scalar MCScenario.node[21].nic.mac1609_4 RXTXLostPackets 0
scalar MCScenario.node[21].nic.mac1609_4 TotalLostPackets 0
scalar MCScenario.node[21].nic.mac1609_4 DroppedPacketsInMac 0
scalar MCScenario.node[21].nic.mac1609_4 TooLittleTime 0
scalar MCScenario.node[21].nic.mac1609_4 TimesIntoBackoff 0
scalar MCScenario.node[21].nic.mac1609_4 SlotsBackoff 0
scalar MCScenario.node[21].nic.mac1609_4 NumInternalContention 0
scalar MCScenario.node[21].nic.mac1609_4 totalBusyTime 0
scalar MCScenario.node[21].veinsmobility startTime 22
scalar MCScenario.node[21].veinsmobility totalTime 153
scalar MCScenario.node[21].veinsmobility stopTime 176
scalar MCScenario.node[21].veinsmobility minSpeed 0.030554535549665
scalar MCScenario.node[21].veinsmobility maxSpeed 13.893828239478
scalar MCScenario.node[21].veinsmobility totalDistance 1761.8311605099
scalar MCScenario.node[21].veinsmobility totalCO2Emission 458.0079332635
scalar MCScenario.node[19].appl generatedWSMs 0
scalar MCScenario.node[19].appl receivedWSMs 0
scalar MCScenario.node[19].appl generatedBSMs 0
scalar MCScenario.node[19].appl receivedBSMs 0
scalar MCScenario.node[19].appl generatedWSAs 0
scalar MCScenario.node[19].appl receivedWSAs 0
scalar MCScenario.node[19].nic.phy80211p busyTime 0
scalar MCScenario.node[19].nic.mac1609_4 ReceivedUnicastPackets 0
scalar MCScenario.node[19].nic.mac1609_4 ReceivedBroadcasts 0
scalar MCScenario.node[19].nic.mac1609_4 SentPackets 0
scalar MCScenario.node[19].nic.mac1609_4 SNIRLostPackets 0
scalar MCScenario.node[19].nic.mac1609_4 RXTXLostPackets 0
scalar MCScenario.node[19].nic.mac1609_4 TotalLostPackets 0
scalar MCScenario.node[19].nic.mac1609_4 DroppedPacketsInMac 0
scalar MCScenario.node[19].nic.mac1609_4 TooLittleTime 0
scalar MCScenario.node[19].nic.mac1609_4 TimesIntoBackoff 0
scalar MCScenario.node[19].nic.mac1609_4 SlotsBackoff 0
scalar MCScenario.node[19].nic.mac1609_4 NumInternalContention 0
scalar MCScenario.node[19].nic.mac1609_4 totalBusyTime 0
scalar MCScenario.node[19].veinsmobility startTime 20
scalar MCScenario.node[19].veinsmobility totalTime 155
scalar MCScenario.node[19].veinsmobility stopTime 176
scalar MCScenario.node[19].veinsmobility minSpeed 1.6170613011345
scalar MCScenario.node[19].veinsmobility maxSpeed 13.890291187982
scalar MCScenario.node[19].veinsmobility totalDistance 1966.7041795681
scalar MCScenario.node[19].veinsmobility totalCO2Emission 390.00038653246
scalar MCScenario.node[66].appl generatedWSMs 0
scalar MCScenario.node[66].appl receivedWSMs 0
scalar MCScenario.node[66].appl generatedBSMs 0
scalar MCScenario.node[66].appl receivedBSMs 0
scalar MCScenario.node[66].appl generatedWSAs 0
scalar MCScenario.node[66].appl receivedWSAs 0
scalar MCScenario.node[66].nic.phy80211p busyTime 0
scalar MCScenario.node[66].nic.mac1609_4 ReceivedUnicastPackets 0
scalar MCScenario.node[66].nic.mac1609_4 ReceivedBroadcasts 0
scalar MCScenario.node[66].nic.mac1609_4 SentPackets 0
scalar MCScenario.node[66].nic.mac1609_4 SNIRLostPackets 0
scalar MCScenario.node[66].nic.mac1609_4 RXTXLostPackets 0
scalar MCScenario.node[66].nic.mac1609_4 TotalLostPackets 0
scalar MCScenario.node[66].nic.mac1609_4 DroppedPacketsInMac 0
scalar MCScenario.node[66].nic.mac1609_4 TooLittleTime 0
scalar MCScenario.node[66].nic.mac1609_4 TimesIntoBackoff 0
scalar MCScenario.node[66].nic.mac1609_4 SlotsBackoff 0
scalar MCScenario.node[66].nic.mac1609_4 NumInternalContention 0
scalar MCScenario.node[66].nic.mac1609_4 totalBusyTime 0
scalar MCScenario.node[66].veinsmobility startTime 67
scalar MCScenario.node[66].veinsmobility totalTime 111
scalar MCScenario.node[66].veinsmobility stopTime 179
scalar MCScenario.node[66].veinsmobility minSpeed 1.3284001370193
scalar MCScenario.node[66].veinsmobility maxSpeed 13.898813210824
scalar MCScenario.node[66].veinsmobility totalDistance 1366.1908545695
scalar MCScenario.node[66].veinsmobility totalCO2Emission 294.12087512977
scalar MCScenario.node[8].appl generatedWSMs 0
scalar MCScenario.node[8].appl receivedWSMs 0
scalar MCScenario.node[8].appl generatedBSMs 0
scalar MCScenario.node[8].appl receivedBSMs 0
scalar MCScenario.node[8].appl generatedWSAs 0
scalar MCScenario.node[8].appl receivedWSAs 0
scalar MCScenario.node[8].nic.phy80211p busyTime 0
scalar MCScenario.node[8].nic.mac1609_4 ReceivedUnicastPackets 0
scalar MCScenario.node[8].nic.mac1609_4 ReceivedBroadcasts 0
scalar MCScenario.node[8].nic.mac1609_4 SentPackets 0
scalar MCScenario.node[8].nic.mac1609_4 SNIRLostPackets 0
scalar MCScenario.node[8].nic.mac1609_4 RXTXLostPackets 0
scalar MCScenario.node[8].nic.mac1609_4 TotalLostPackets 0
scalar MCScenario.node[8].nic.mac1609_4 DroppedPacketsInMac 0
scalar MCScenario.node[8].nic.mac1609_4 TooLittleTime 0
scalar MCScenario.node[8].nic.mac1609_4 TimesIntoBackoff 0
scalar MCScenario.node[8].nic.mac1609_4 SlotsBackoff 0
scalar MCScenario.node[8].nic.mac1609_4 NumInternalContention 0
scalar MCScenario.node[8].nic.mac1609_4 totalBusyTime 0
scalar MCScenario.node[8].veinsmobility startTime 9
scalar MCScenario.node[8].veinsmobility totalTime 171
scalar MCScenario.node[8].veinsmobility stopTime 181
scalar MCScenario.node[8].veinsmobility minSpeed 0.00068358435038734
scalar MCScenario.node[8].veinsmobility maxSpeed 13.879971619509
scalar MCScenario.node[8].veinsmobility totalDistance 1973.4621589826
scalar MCScenario.node[8].veinsmobility totalCO2Emission 485.43044413327
scalar MCScenario.node[105].appl generatedWSMs 0
scalar MCScenario.node[105].appl receivedWSMs 0
scalar MCScenario.node[105].appl generatedBSMs 0
scalar MCScenario.node[105].appl receivedBSMs 0
scalar MCScenario.node[105].appl generatedWSAs 0
scalar MCScenario.node[105].appl receivedWSAs 0
scalar MCScenario.node[105].nic.phy80211p busyTime 0
scalar MCScenario.node[105].nic.mac1609_4 ReceivedUnicastPackets 0
scalar MCScenario.node[105].nic.mac1609_4 ReceivedBroadcasts 0
scalar MCScenario.node[105].nic.mac1609_4 SentPackets 0
scalar MCScenario.node[105].nic.mac1609_4 SNIRLostPackets 0
scalar MCScenario.node[105].nic.mac1609_4 RXTXLostPackets 0
scalar MCScenario.node[105].nic.mac1609_4 TotalLostPackets 0
scalar MCScenario.node[105].nic.mac1609_4 DroppedPacketsInMac 0
scalar MCScenario.node[105].nic.mac1609_4 TooLittleTime 0
scalar MCScenario.node[105].nic.mac1609_4 TimesIntoBackoff 0
scalar MCScenario.node[105].nic.mac1609_4 SlotsBackoff 0
scalar MCScenario.node[105].nic.mac1609_4 NumInternalContention 0
scalar MCScenario.node[105].nic.mac1609_4 totalBusyTime 0
scalar MCScenario.node[105].veinsmobility startTime 107
scalar MCScenario.node[105].veinsmobility totalTime 73
scalar MCScenario.node[105].veinsmobility stopTime 181
scalar MCScenario.node[105].veinsmobility minSpeed 0.024153072077639
scalar MCScenario.node[105].veinsmobility maxSpeed 13.897449211986
scalar MCScenario.node[105].veinsmobility totalDistance 772.13969432726
scalar MCScenario.node[105].veinsmobility totalCO2Emission 224.41769074387
scalar MCScenario.node[146].appl generatedWSMs 0
scalar MCScenario.node[146].appl receivedWSMs 0
scalar MCScenario.node[146].appl generatedBSMs 0
scalar MCScenario.node[146].appl receivedBSMs 0
scalar MCScenario.node[146].appl generatedWSAs 0
scalar MCScenario.node[146].appl receivedWSAs 0
scalar MCScenario.node[146].nic.phy80211p busyTime 0
scalar MCScenario.node[146].nic.mac1609_4 ReceivedUnicastPackets 0
scalar MCScenario.node[146].nic.mac1609_4 ReceivedBroadcasts 0
scalar MCScenario.node[146].nic.mac1609_4 SentPackets 0
scalar MCScenario.node[146].nic.mac1609_4 SNIRLostPackets 0
scalar MCScenario.node[146].nic.mac1609_4 RXTXLostPackets 0
scalar MCScenario.node[146].nic.mac1609_4 TotalLostPackets 0
scalar MCScenario.node[146].nic.mac1609_4 DroppedPacketsInMac 0
scalar MCScenario.node[146].nic.mac1609_4 TooLittleTime 0
scalar MCScenario.node[146].nic.mac1609_4 TimesIntoBackoff 0
scalar MCScenario.node[146].nic.mac1609_4 SlotsBackoff 0
scalar MCScenario.node[146].nic.mac1609_4 NumInternalContention 0
scalar MCScenario.node[146].nic.mac1609_4 totalBusyTime 0
scalar MCScenario.node[146].veinsmobility startTime 147
scalar MCScenario.node[146].veinsmobility totalTime 34
scalar MCScenario.node[146].veinsmobility stopTime 182
scalar MCScenario.node[146].veinsmobility minSpeed 2.2379366085166
scalar MCScenario.node[146].veinsmobility maxSpeed 13.85878582038
scalar MCScenario.node[146].veinsmobility totalDistance 378.49678759708
scalar MCScenario.node[146].veinsmobility totalCO2Emission 109.73358093888
scalar MCScenario.node[65].appl generatedWSMs 0
scalar MCScenario.node[65].appl receivedWSMs 0
scalar MCScenario.node[65].appl generatedBSMs 0
scalar MCScenario.node[65].appl receivedBSMs 0
scalar MCScenario.node[65].appl generatedWSAs 0
scalar MCScenario.node[65].appl receivedWSAs 0
scalar MCScenario.node[65].nic.phy80211p busyTime 0
scalar MCScenario.node[65].nic.mac1609_4 ReceivedUnicastPackets 0
scalar MCScenario.node[65].nic.mac1609_4 ReceivedBroadcasts 0
scalar MCScenario.node[65].nic.mac1609_4 SentPackets 0
scalar MCScenario.node[65].nic.mac1609_4 SNIRLostPackets 0
scalar MCScenario.node[65].nic.mac1609_4 RXTXLostPackets 0
scalar MCScenario.node[65].nic.mac1609_4 TotalLostPackets 0
scalar MCScenario.node[65].nic.mac1609_4 DroppedPacketsInMac 0
scalar MCScenario.node[65].nic.mac1609_4 TooLittleTime 0
scalar MCScenario.node[65].nic.mac1609_4 TimesIntoBackoff 0
scalar MCScenario.node[65].nic.mac1609_4 SlotsBackoff 0
scalar MCScenario.node[65].nic.mac1609_4 NumInternalContention 0
scalar MCScenario.node[65].nic.mac1609_4 totalBusyTime 0
scalar MCScenario.node[65].veinsmobility startTime 66
scalar MCScenario.node[65].veinsmobility totalTime 115
scalar MCScenario.node[65].veinsmobility stopTime 182
scalar MCScenario.node[65].veinsmobility minSpeed 1.3027072205208
scalar MCScenario.node[65].veinsmobility maxSpeed 13.887047432945
scalar MCScenario.node[65].veinsmobility totalDistance 1367.9314429578
scalar MCScenario.node[65].veinsmobility totalCO2Emission 336.60473714696
scalar MCScenario.node[87].appl generatedWSMs 0
scalar MCScenario.node[87].appl receivedWSMs 0
scalar MCScenario.node[87].appl generatedBSMs 0
scalar MCScenario.node[87].appl receivedBSMs 0
scalar MCScenario.node[87].appl generatedWSAs 0
scalar MCScenario.node[87].appl receivedWSAs 0
scalar MCScenario.node[87].nic.phy80211p busyTime 0
scalar MCScenario.node[87].nic.mac1609_4 ReceivedUnicastPackets 0
scalar MCScenario.node[87].nic.mac1609_4 ReceivedBroadcasts 0
scalar MCScenario.node[87].nic.mac1609_4 SentPackets 0
scalar MCScenario.node[87].nic.mac1609_4 SNIRLostPackets 0
scalar MCScenario.node[87].nic.mac1609_4 RXTXLostPackets 0
scalar MCScenario.node[87].nic.mac1609_4 TotalLostPackets 0
scalar MCScenario.node[87].nic.mac1609_4 DroppedPacketsInMac 0
scalar MCScenario.node[87].nic.mac1609_4 TooLittleTime 0
scalar MCScenario.node[87].nic.mac1609_4 TimesIntoBackoff 0
scalar MCScenario.node[87].nic.mac1609_4 SlotsBackoff 0
scalar MCScenario.node[87].nic.mac1609_4 NumInternalContention 0
scalar MCScenario.node[87].nic.mac1609_4 totalBusyTime 0
scalar MCScenario.node[87].veinsmobility startTime 88
scalar MCScenario.node[87].veinsmobility totalTime 94
scalar MCScenario.node[87].veinsmobility stopTime 183
scalar MCScenario.node[87].veinsmobility minSpeed 1.7978542174445
scalar MCScenario.node[87].veinsmobility maxSpeed 13.878718801937
scalar MCScenario.node[87].veinsmobility totalDistance 1159.9731527723
scalar MCScenario.node[87].veinsmobility totalCO2Emission 253.61875797583
scalar MCScenario.node[67].appl generatedWSMs 0
scalar MCScenario.node[67].appl receivedWSMs 0
scalar MCScenario.node[67].appl generatedBSMs 0
scalar MCScenario.node[67].appl receivedBSMs 0
scalar MCScenario.node[67].appl generatedWSAs 0
scalar MCScenario.node[67].appl receivedWSAs 0
scalar MCScenario.node[67].nic.phy80211p busyTime 0
scalar MCScenario.node[67].nic.mac1609_4 ReceivedUnicastPackets 0
scalar MCScenario.node[67].nic.mac1609_4 ReceivedBroadcasts 0
scalar MCScenario.node[67].nic.mac1609_4 SentPackets 0
scalar MCScenario.node[67].nic.mac1609_4 SNIRLostPackets 0
scalar MCScenario.node[67].nic.mac1609_4 RXTXLostPackets 0
scalar MCScenario.node[67].nic.mac1609_4 TotalLostPackets 0
scalar MCScenario.node[67].nic.mac1609_4 DroppedPacketsInMac 0
scalar MCScenario.node[67].nic.mac1609_4 TooLittleTime 0
scalar MCScenario.node[67].nic.mac1609_4 TimesIntoBackoff 0
scalar MCScenario.node[67].nic.mac1609_4 SlotsBackoff 0
scalar MCScenario.node[67].nic.mac1609_4 NumInternalContention 0
scalar MCScenario.node[67].nic.mac1609_4 totalBusyTime 0
scalar MCScenario.node[67].veinsmobility startTime 68
scalar MCScenario.node[67].veinsmobility totalTime 115
scalar MCScenario.node[67].veinsmobility stopTime 184
scalar MCScenario.node[67].veinsmobility minSpeed 0.00034497907164759
scalar MCScenario.node[67].veinsmobility maxSpeed 13.870968967117
scalar MCScenario.node[67].veinsmobility totalDistance 1164.5126195455
scalar MCScenario.node[67].veinsmobility totalCO2Emission 337.17646270675
scalar MCScenario.node[70].appl generatedWSMs 0
scalar MCScenario.node[70].appl receivedWSMs 0
scalar MCScenario.node[70].appl generatedBSMs 0
scalar MCScenario.node[70].appl receivedBSMs 0
scalar MCScenario.node[70].appl generatedWSAs 0
scalar MCScenario.node[70].appl receivedWSAs 0
scalar MCScenario.node[70].nic.phy80211p busyTime 0
scalar MCScenario.node[70].nic.mac1609_4 ReceivedUnicastPackets 0
scalar MCScenario.node[70].nic.mac1609_4 ReceivedBroadcasts 0
scalar MCScenario.node[70].nic.mac1609_4 SentPackets 0
scalar MCScenario.node[70].nic.mac1609_4 SNIRLostPackets 0
scalar MCScenario.node[70].nic.mac1609_4 RXTXLostPackets 0
scalar MCScenario.node[70].nic.mac1609_4 TotalLostPackets 0
scalar MCScenario.node[70].nic.mac1609_4 DroppedPacketsInMac 0
scalar MCScenario.node[70].nic.mac1609_4 TooLittleTime 0
scalar MCScenario.node[70].nic.mac1609_4 TimesIntoBackoff 0
scalar MCScenario.node[70].nic.mac1609_4 SlotsBackoff 0
scalar MCScenario.node[70].nic.mac1609_4 NumInternalContention 0
scalar MCScenario.node[70].nic.mac1609_4 totalBusyTime 0
scalar MCScenario.node[70].veinsmobility startTime 73
scalar MCScenario.node[70].veinsmobility totalTime 112
scalar MCScenario.node[70].veinsmobility stopTime 186
scalar MCScenario.node[70].veinsmobility minSpeed 2.5814730371116
scalar MCScenario.node[70].veinsmobility maxSpeed 13.896397760045
scalar MCScenario.node[70].veinsmobility totalDistance 1366.3571585237
scalar MCScenario.node[70].veinsmobility totalCO2Emission 315.38257979649
scalar MCScenario.node[6].appl generatedWSMs 0
scalar MCScenario.node[6].appl receivedWSMs 0
scalar MCScenario.node[6].appl generatedBSMs 0
scalar MCScenario.node[6].appl receivedBSMs 0
scalar MCScenario.node[6].appl generatedWSAs 0
scalar MCScenario.node[6].appl receivedWSAs 0
scalar MCScenario.node[6].nic.phy80211p busyTime 0
scalar MCScenario.node[6].nic.mac1609_4 ReceivedUnicastPackets 0
scalar MCScenario.node[6].nic.mac1609_4 ReceivedBroadcasts 0
scalar MCScenario.node[6].nic.mac1609_4 SentPackets 0
scalar MCScenario.node[6].nic.mac1609_4 SNIRLostPackets 0
scalar MCScenario.node[6].nic.mac1609_4 RXTXLostPackets 0
scalar MCScenario.node[6].nic.mac1609_4 TotalLostPackets 0
scalar MCScenario.node[6].nic.mac1609_4 DroppedPacketsInMac 0
scalar MCScenario.node[6].nic.mac1609_4 TooLittleTime 0
scalar MCScenario.node[6].nic.mac1609_4 TimesIntoBackoff 0
scalar MCScenario.node[6].nic.mac1609_4 SlotsBackoff 0
scalar MCScenario.node[6].nic.mac1609_4 NumInternalContention 0
scalar MCScenario.node[6].nic.mac1609_4 totalBusyTime 0
scalar MCScenario.node[6].veinsmobility startTime 7
scalar MCScenario.node[6].veinsmobility totalTime 180
scalar MCScenario.node[6].veinsmobility stopTime 188
scalar MCScenario.node[6].veinsmobility minSpeed 1.5130976005225
scalar MCScenario.node[6].veinsmobility maxSpeed 13.896455254685
scalar MCScenario.node[6].veinsmobility totalDistance 2173.7025873536
scalar MCScenario.node[6].veinsmobility totalCO2Emission 526.52178027975
scalar MCScenario.node[55].appl generatedWSMs 0
scalar MCScenario.node[55].appl receivedWSMs 0
scalar MCScenario.node[55].appl generatedBSMs 0
scalar MCScenario.node[55].appl receivedBSMs 0
scalar MCScenario.node[55].appl generatedWSAs 0
scalar MCScenario.node[55].appl receivedWSAs 0
scalar MCScenario.node[55].nic.phy80211p busyTime 0
scalar MCScenario.node[55].nic.mac1609_4 ReceivedUnicastPackets 0
scalar MCScenario.node[55].nic.mac1609_4 ReceivedBroadcasts 0
scalar MCScenario.node[55].nic.mac1609_4 SentPackets 0
scalar MCScenario.node[55].nic.mac1609_4 SNIRLostPackets 0
scalar MCScenario.node[55].nic.mac1609_4 RXTXLostPackets 0
scalar MCScenario.node[55].nic.mac1609_4 TotalLostPackets 0
scalar MCScenario.node[55].nic.mac1609_4 DroppedPacketsInMac 0
scalar MCScenario.node[55].nic.mac1609_4 TooLittleTime 0
scalar MCScenario.node[55].nic.mac1609_4 TimesIntoBackoff 0
scalar MCScenario.node[55].nic.mac1609_4 SlotsBackoff 0
scalar MCScenario.node[55].nic.mac1609_4 NumInternalContention 0
scalar MCScenario.node[55].nic.mac1609_4 totalBusyTime 0
scalar MCScenario.node[55].veinsmobility startTime 56
scalar MCScenario.node[55].veinsmobility totalTime 132
scalar MCScenario.node[55].veinsmobility stopTime 189
scalar MCScenario.node[55].veinsmobility minSpeed 2.0450243328232
scalar MCScenario.node[55].veinsmobility maxSpeed 13.888421992282
scalar MCScenario.node[55].veinsmobility totalDistance 1552.4008192452
scalar MCScenario.node[55].veinsmobility totalCO2Emission 412.72163261728
scalar MCScenario.node[109].appl generatedWSMs 0
scalar MCScenario.node[109].appl receivedWSMs 0
scalar MCScenario.node[109].appl generatedBSMs 0
[...]
scalar MCScenario.node[663].veinsmobility totalDistance 2161.8334277496
scalar MCScenario.node[663].veinsmobility totalCO2Emission 445.36226133563
scalar MCScenario.node[660].appl generatedWSMs 0
scalar MCScenario.node[660].appl receivedWSMs 0
scalar MCScenario.node[660].appl generatedBSMs 0
scalar MCScenario.node[660].appl receivedBSMs 0
scalar MCScenario.node[660].appl generatedWSAs 0
scalar MCScenario.node[660].appl receivedWSAs 0
scalar MCScenario.node[660].nic.phy80211p busyTime 0
scalar MCScenario.node[660].nic.mac1609_4 ReceivedUnicastPackets 0
scalar MCScenario.node[660].nic.mac1609_4 ReceivedBroadcasts 0
scalar MCScenario.node[660].nic.mac1609_4 SentPackets 0
scalar MCScenario.node[660].nic.mac1609_4 SNIRLostPackets 0
scalar MCScenario.node[660].nic.mac1609_4 RXTXLostPackets 0
scalar MCScenario.node[660].nic.mac1609_4 TotalLostPackets 0
scalar MCScenario.node[660].nic.mac1609_4 DroppedPacketsInMac 0
scalar MCScenario.node[660].nic.mac1609_4 TooLittleTime 0
scalar MCScenario.node[660].nic.mac1609_4 TimesIntoBackoff 0
scalar MCScenario.node[660].nic.mac1609_4 SlotsBackoff 0
scalar MCScenario.node[660].nic.mac1609_4 NumInternalContention 0
scalar MCScenario.node[660].nic.mac1609_4 totalBusyTime 0
scalar MCScenario.node[660].veinsmobility startTime 661
scalar MCScenario.node[660].veinsmobility totalTime 174
scalar MCScenario.node[660].veinsmobility stopTime 836
scalar MCScenario.node[660].veinsmobility minSpeed 2.5142555776285
scalar MCScenario.node[660].veinsmobility maxSpeed 13.89589019441
scalar MCScenario.node[660].veinsmobility totalDistance 2167.8067558193
scalar MCScenario.node[660].veinsmobility totalCO2Emission 471.98143378037
scalar MCScenario.node[696].appl generatedWSMs 0
scalar MCScenario.node[696].appl receivedWSMs 0
scalar MCScenario.node[696].appl generatedBSMs 0
scalar MCScenario.node[696].appl receivedBSMs 0
scalar MCScenario.node[696].appl generatedWSAs 0
scalar MCScenario.node[696].appl receivedWSAs 0
scalar MCScenario.node[696].nic.phy80211p busyTime 0
scalar MCScenario.node[696].nic.mac1609_4 ReceivedUnicastPackets 0
scalar MCScenario.node[696].nic.mac1609_4 ReceivedBroadcasts 0
scalar MCScenario.node[696].nic.mac1609_4 SentPackets 0
scalar MCScenario.node[696].nic.mac1609_4 SNIRLostPackets 0
scalar MCScenario.node[696].nic.mac1609_4 RXTXLostPackets 0
scalar MCScenario.node[696].nic.mac1609_4 TotalLostPackets 0
scalar MCScenario.node[696].nic.mac1609_4 DroppedPacketsInMac 0
scalar MCScenario.node[696].nic.mac1609_4 TooLittleTime 0
scalar MCScenario.node[696].nic.mac1609_4 TimesIntoBackoff 0
scalar MCScenario.node[696].nic.mac1609_4 SlotsBackoff 0
scalar MCScenario.node[696].nic.mac1609_4 NumInternalContention 0
scalar MCScenario.node[696].nic.mac1609_4 totalBusyTime 0
scalar MCScenario.node[696].veinsmobility startTime 698
scalar MCScenario.node[696].veinsmobility totalTime 139
scalar MCScenario.node[696].veinsmobility stopTime 838
scalar MCScenario.node[696].veinsmobility minSpeed 0.0039041204405793
scalar MCScenario.node[696].veinsmobility maxSpeed 13.890419595363
scalar MCScenario.node[696].veinsmobility totalDistance 1567.7660088616
scalar MCScenario.node[696].veinsmobility totalCO2Emission 359.16397695519
scalar MCScenario.node[681].appl generatedWSMs 0
scalar MCScenario.node[681].appl receivedWSMs 0
scalar MCScenario.node[681].appl generatedBSMs 0
scalar MCScenario.node[681].appl receivedBSMs 0
scalar MCScenario.node[681].appl generatedWSAs 0
scalar MCScenario.node[681].appl receivedWSAs 0
scalar MCScenario.node[681].nic.phy80211p busyTime 0
scalar MCScenario.node[681].nic.mac1609_4 ReceivedUnicastPackets 0
scalar MCScenario.node[681].nic.mac1609_4 ReceivedBroadcasts 0
scalar MCScenario.node[681].nic.mac1609_4 SentPackets 0
scalar MCScenario.node[681].nic.mac1609_4 SNIRLostPackets 0
scalar MCScenario.node[681].nic.mac1609_4 RXTXLostPackets 0
scalar MCScenario.node[681].nic.mac1609_4 TotalLostPackets 0
scalar MCScenario.node[681].nic.mac1609_4 DroppedPacketsInMac 0
scalar MCScenario.node[681].nic.mac1609_4 TooLittleTime 0
scalar MCScenario.node[681].nic.mac1609_4 TimesIntoBackoff 0
scalar MCScenario.node[681].nic.mac1609_4 SlotsBackoff 0
scalar MCScenario.node[681].nic.mac1609_4 NumInternalContention 0
scalar MCScenario.node[681].nic.mac1609_4 totalBusyTime 0
scalar MCScenario.node[681].veinsmobility startTime 683
scalar MCScenario.node[681].veinsmobility totalTime 154
scalar MCScenario.node[681].veinsmobility stopTime 838
scalar MCScenario.node[681].veinsmobility minSpeed 0.0024829838640264
scalar MCScenario.node[681].veinsmobility maxSpeed 13.897334471205
scalar MCScenario.node[681].veinsmobility totalDistance 1768.980769455
scalar MCScenario.node[681].veinsmobility totalCO2Emission 459.18744166398
scalar MCScenario.node[726].appl generatedWSMs 0
scalar MCScenario.node[726].appl receivedWSMs 0
scalar MCScenario.node[726].appl generatedBSMs 0
scalar MCScenario.node[726].appl receivedBSMs 0
scalar MCScenario.node[726].appl generatedWSAs 0
scalar MCScenario.node[726].appl receivedWSAs 0
scalar MCScenario.node[726].nic.phy80211p busyTime 0
scalar MCScenario.node[726].nic.mac1609_4 ReceivedUnicastPackets 0
scalar MCScenario.node[726].nic.mac1609_4 ReceivedBroadcasts 0
scalar MCScenario.node[726].nic.mac1609_4 SentPackets 0
scalar MCScenario.node[726].nic.mac1609_4 SNIRLostPackets 0
scalar MCScenario.node[726].nic.mac1609_4 RXTXLostPackets 0
scalar MCScenario.node[726].nic.mac1609_4 TotalLostPackets 0
scalar MCScenario.node[726].nic.mac1609_4 DroppedPacketsInMac 0
scalar MCScenario.node[726].nic.mac1609_4 TooLittleTime 0
scalar MCScenario.node[726].nic.mac1609_4 TimesIntoBackoff 0
scalar MCScenario.node[726].nic.mac1609_4 SlotsBackoff 0
scalar MCScenario.node[726].nic.mac1609_4 NumInternalContention 0
scalar MCScenario.node[726].nic.mac1609_4 totalBusyTime 0
scalar MCScenario.node[726].veinsmobility startTime 727
scalar MCScenario.node[726].veinsmobility totalTime 112
scalar MCScenario.node[726].veinsmobility stopTime 840
scalar MCScenario.node[726].veinsmobility minSpeed 2.2037651791004
scalar MCScenario.node[726].veinsmobility maxSpeed 13.881906664115
scalar MCScenario.node[726].veinsmobility totalDistance 1359.9541415195
scalar MCScenario.node[726].veinsmobility totalCO2Emission 336.04781054812
scalar MCScenario.node[669].appl generatedWSMs 0
scalar MCScenario.node[669].appl receivedWSMs 0
scalar MCScenario.node[669].appl generatedBSMs 0
scalar MCScenario.node[669].appl receivedBSMs 0
scalar MCScenario.node[669].appl generatedWSAs 0
scalar MCScenario.node[669].appl receivedWSAs 0
scalar MCScenario.node[669].nic.phy80211p busyTime 0
scalar MCScenario.node[669].nic.mac1609_4 ReceivedUnicastPackets 0
scalar MCScenario.node[669].nic.mac1609_4 ReceivedBroadcasts 0
scalar MCScenario.node[669].nic.mac1609_4 SentPackets 0
scalar MCScenario.node[669].nic.mac1609_4 SNIRLostPackets 0
scalar MCScenario.node[669].nic.mac1609_4 RXTXLostPackets 0
scalar MCScenario.node[669].nic.mac1609_4 TotalLostPackets 0
scalar MCScenario.node[669].nic.mac1609_4 DroppedPacketsInMac 0
scalar MCScenario.node[669].nic.mac1609_4 TooLittleTime 0
scalar MCScenario.node[669].nic.mac1609_4 TimesIntoBackoff 0
scalar MCScenario.node[669].nic.mac1609_4 SlotsBackoff 0
scalar MCScenario.node[669].nic.mac1609_4 NumInternalContention 0
scalar MCScenario.node[669].nic.mac1609_4 totalBusyTime 0
scalar MCScenario.node[669].veinsmobility startTime 670
scalar MCScenario.node[669].veinsmobility totalTime 169
scalar MCScenario.node[669].veinsmobility stopTime 840
scalar MCScenario.node[669].veinsmobility minSpeed 1.9319934893399
scalar MCScenario.node[669].veinsmobility maxSpeed 13.876534191449
scalar MCScenario.node[669].veinsmobility totalDistance 2175.0814329254
scalar MCScenario.node[669].veinsmobility totalCO2Emission 428.20953915497
scalar MCScenario.node[754].appl generatedWSMs 0
scalar MCScenario.node[754].appl receivedWSMs 0
scalar MCScenario.node[754].appl generatedBSMs 0
scalar MCScenario.node[754].appl receivedBSMs 0
scalar MCScenario.node[754].appl generatedWSAs 0
scalar MCScenario.node[754].appl receivedWSAs 0
scalar MCScenario.node[754].nic.phy80211p busyTime 0
scalar MCScenario.node[754].nic.mac1609_4 ReceivedUnicastPackets 0
scalar MCScenario.node[754].nic.mac1609_4 ReceivedBroadcasts 0
scalar MCScenario.node[754].nic.mac1609_4 SentPackets 0
scalar MCScenario.node[754].nic.mac1609_4 SNIRLostPackets 0
scalar MCScenario.node[754].nic.mac1609_4 RXTXLostPackets 0
scalar MCScenario.node[754].nic.mac1609_4 TotalLostPackets 0
scalar MCScenario.node[754].nic.mac1609_4 DroppedPacketsInMac 0
scalar MCScenario.node[754].nic.mac1609_4 TooLittleTime 0
scalar MCScenario.node[754].nic.mac1609_4 TimesIntoBackoff 0
scalar MCScenario.node[754].nic.mac1609_4 SlotsBackoff 0
scalar MCScenario.node[754].nic.mac1609_4 NumInternalContention 0
scalar MCScenario.node[754].nic.mac1609_4 totalBusyTime 0
scalar MCScenario.node[754].veinsmobility startTime 757
scalar MCScenario.node[754].veinsmobility totalTime 83
scalar MCScenario.node[754].veinsmobility stopTime 841
scalar MCScenario.node[754].veinsmobility minSpeed 1.3294233583147
scalar MCScenario.node[754].veinsmobility maxSpeed 13.891076803184
scalar MCScenario.node[754].veinsmobility totalDistance 967.9513878152
scalar MCScenario.node[754].veinsmobility totalCO2Emission 266.72552862181
scalar MCScenario.node[776].appl generatedWSMs 0
scalar MCScenario.node[776].appl receivedWSMs 0
scalar MCScenario.node[776].appl generatedBSMs 0
scalar MCScenario.node[776].appl receivedBSMs 0
scalar MCScenario.node[776].appl generatedWSAs 0
scalar MCScenario.node[776].appl receivedWSAs 0
scalar MCScenario.node[776].nic.phy80211p busyTime 0
scalar MCScenario.node[776].nic.mac1609_4 ReceivedUnicastPackets 0
scalar MCScenario.node[776].nic.mac1609_4 ReceivedBroadcasts 0
scalar MCScenario.node[776].nic.mac1609_4 SentPackets 0
scalar MCScenario.node[776].nic.mac1609_4 SNIRLostPackets 0
scalar MCScenario.node[776].nic.mac1609_4 RXTXLostPackets 0
scalar MCScenario.node[776].nic.mac1609_4 TotalLostPackets 0
scalar MCScenario.node[776].nic.mac1609_4 DroppedPacketsInMac 0
scalar MCScenario.node[776].nic.mac1609_4 TooLittleTime 0
scalar MCScenario.node[776].nic.mac1609_4 TimesIntoBackoff 0
scalar MCScenario.node[776].nic.mac1609_4 SlotsBackoff 0
scalar MCScenario.node[776].nic.mac1609_4 NumInternalContention 0
scalar MCScenario.node[776].nic.mac1609_4 totalBusyTime 0
scalar MCScenario.node[776].veinsmobility startTime 778
scalar MCScenario.node[776].veinsmobility totalTime 63
scalar MCScenario.node[776].veinsmobility stopTime 842
scalar MCScenario.node[776].veinsmobility minSpeed 1.8255922190147
scalar MCScenario.node[776].veinsmobility maxSpeed 13.891824602475
scalar MCScenario.node[776].veinsmobility totalDistance 764.88432833609
scalar MCScenario.node[776].veinsmobility totalCO2Emission 185.33069737525
scalar MCScenario.node[709].appl generatedWSMs 0
scalar MCScenario.node[709].appl receivedWSMs 0
scalar MCScenario.node[709].appl generatedBSMs 0
scalar MCScenario.node[709].appl receivedBSMs 0
scalar MCScenario.node[709].appl generatedWSAs 0
scalar MCScenario.node[709].appl receivedWSAs 0
scalar MCScenario.node[709].nic.phy80211p busyTime 0
scalar MCScenario.node[709].nic.mac1609_4 ReceivedUnicastPackets 0
scalar MCScenario.node[709].nic.mac1609_4 ReceivedBroadcasts 0
scalar MCScenario.node[709].nic.mac1609_4 SentPackets 0
scalar MCScenario.node[709].nic.mac1609_4 SNIRLostPackets 0
scalar MCScenario.node[709].nic.mac1609_4 RXTXLostPackets 0
scalar MCScenario.node[709].nic.mac1609_4 TotalLostPackets 0
scalar MCScenario.node[709].nic.mac1609_4 DroppedPacketsInMac 0
scalar MCScenario.node[709].nic.mac1609_4 TooLittleTime 0
scalar MCScenario.node[709].nic.mac1609_4 TimesIntoBackoff 0
scalar MCScenario.node[709].nic.mac1609_4 SlotsBackoff 0
scalar MCScenario.node[709].nic.mac1609_4 NumInternalContention 0
scalar MCScenario.node[709].nic.mac1609_4 totalBusyTime 0
scalar MCScenario.node[709].veinsmobility startTime 710
scalar MCScenario.node[709].veinsmobility totalTime 132
scalar MCScenario.node[709].veinsmobility stopTime 843
scalar MCScenario.node[709].veinsmobility minSpeed 2.3111085413257
scalar MCScenario.node[709].veinsmobility maxSpeed 13.876708313474
scalar MCScenario.node[709].veinsmobility totalDistance 1574.6382778534
scalar MCScenario.node[709].veinsmobility totalCO2Emission 394.24398964208
scalar MCScenario.node[713].appl generatedWSMs 0
scalar MCScenario.node[713].appl receivedWSMs 0
scalar MCScenario.node[713].appl generatedBSMs 0
scalar MCScenario.node[713].appl receivedBSMs 0
scalar MCScenario.node[713].appl generatedWSAs 0
scalar MCScenario.node[713].appl receivedWSAs 0
scalar MCScenario.node[713].nic.phy80211p busyTime 0
scalar MCScenario.node[713].nic.mac1609_4 ReceivedUnicastPackets 0
scalar MCScenario.node[713].nic.mac1609_4 ReceivedBroadcasts 0
scalar MCScenario.node[713].nic.mac1609_4 SentPackets 0
scalar MCScenario.node[713].nic.mac1609_4 SNIRLostPackets 0
scalar MCScenario.node[713].nic.mac1609_4 RXTXLostPackets 0
scalar MCScenario.node[713].nic.mac1609_4 TotalLostPackets 0
scalar MCScenario.node[713].nic.mac1609_4 DroppedPacketsInMac 0
scalar MCScenario.node[713].nic.mac1609_4 TooLittleTime 0
scalar MCScenario.node[713].nic.mac1609_4 TimesIntoBackoff 0
scalar MCScenario.node[713].nic.mac1609_4 SlotsBackoff 0
scalar MCScenario.node[713].nic.mac1609_4 NumInternalContention 0
scalar MCScenario.node[713].nic.mac1609_4 totalBusyTime 0
scalar MCScenario.node[713].veinsmobility startTime 715
scalar MCScenario.node[713].veinsmobility totalTime 128
scalar MCScenario.node[713].veinsmobility stopTime 844
scalar MCScenario.node[713].veinsmobility minSpeed 2.538140875008
scalar MCScenario.node[713].veinsmobility maxSpeed 13.895577257662
scalar MCScenario.node[713].veinsmobility totalDistance 1554.9623889308
scalar MCScenario.node[713].veinsmobility totalCO2Emission 354.41921534577
scalar MCScenario.node[703].appl generatedWSMs 0
scalar MCScenario.node[703].appl receivedWSMs 0
scalar MCScenario.node[703].appl generatedBSMs 0
scalar MCScenario.node[703].appl receivedBSMs 0
scalar MCScenario.node[703].appl generatedWSAs 0
scalar MCScenario.node[703].appl receivedWSAs 0
scalar MCScenario.node[703].nic.phy80211p busyTime 0
scalar MCScenario.node[703].nic.mac1609_4 ReceivedUnicastPackets 0
scalar MCScenario.node[703].nic.mac1609_4 ReceivedBroadcasts 0
scalar MCScenario.node[703].nic.mac1609_4 SentPackets 0
scalar MCScenario.node[703].nic.mac1609_4 SNIRLostPackets 0
scalar MCScenario.node[703].nic.mac1609_4 RXTXLostPackets 0
scalar MCScenario.node[703].nic.mac1609_4 TotalLostPackets 0
scalar MCScenario.node[703].nic.mac1609_4 DroppedPacketsInMac 0
scalar MCScenario.node[703].nic.mac1609_4 TooLittleTime 0
scalar MCScenario.node[703].nic.mac1609_4 TimesIntoBackoff 0
scalar MCScenario.node[703].nic.mac1609_4 SlotsBackoff 0
scalar MCScenario.node[703].nic.mac1609_4 NumInternalContention 0
scalar MCScenario.node[703].nic.mac1609_4 totalBusyTime 0
scalar MCScenario.node[703].veinsmobility startTime 704
scalar MCScenario.node[703].veinsmobility totalTime 139
scalar MCScenario.node[703].veinsmobility stopTime 844
scalar MCScenario.node[703].veinsmobility minSpeed 1.5635207260959
scalar MCScenario.node[703].veinsmobility maxSpeed 13.881446753
scalar MCScenario.node[703].veinsmobility totalDistance 1758.3853750642
scalar MCScenario.node[703].veinsmobility totalCO2Emission 356.76094178299
scalar MCScenario.node[777].appl generatedWSMs 0
scalar MCScenario.node[777].appl receivedWSMs 0
scalar MCScenario.node[777].appl generatedBSMs 0
scalar MCScenario.node[777].appl receivedBSMs 0
scalar MCScenario.node[777].appl generatedWSAs 0
scalar MCScenario.node[777].appl receivedWSAs 0
scalar MCScenario.node[777].nic.phy80211p busyTime 0
scalar MCScenario.node[777].nic.mac1609_4 ReceivedUnicastPackets 0
scalar MCScenario.node[777].nic.mac1609_4 ReceivedBroadcasts 0
scalar MCScenario.node[777].nic.mac1609_4 SentPackets 0
scalar MCScenario.node[777].nic.mac1609_4 SNIRLostPackets 0
scalar MCScenario.node[777].nic.mac1609_4 RXTXLostPackets 0
scalar MCScenario.node[777].nic.mac1609_4 TotalLostPackets 0
scalar MCScenario.node[777].nic.mac1609_4 DroppedPacketsInMac 0
scalar MCScenario.node[777].nic.mac1609_4 TooLittleTime 0
scalar MCScenario.node[777].nic.mac1609_4 TimesIntoBackoff 0
scalar MCScenario.node[777].nic.mac1609_4 SlotsBackoff 0
scalar MCScenario.node[777].nic.mac1609_4 NumInternalContention 0
scalar MCScenario.node[777].nic.mac1609_4 totalBusyTime 0
scalar MCScenario.node[777].veinsmobility startTime 778
scalar MCScenario.node[777].veinsmobility totalTime 65
scalar MCScenario.node[777].veinsmobility stopTime 844
scalar MCScenario.node[777].veinsmobility minSpeed 1.9156150438823
scalar MCScenario.node[777].veinsmobility maxSpeed 13.859530588938
scalar MCScenario.node[777].veinsmobility totalDistance 770.97061440831
scalar MCScenario.node[777].veinsmobility totalCO2Emission 191.07763942372
scalar MCScenario.node[720].appl generatedWSMs 0
scalar MCScenario.node[720].appl receivedWSMs 0
scalar MCScenario.node[720].appl generatedBSMs 0
scalar MCScenario.node[720].appl receivedBSMs 0
scalar MCScenario.node[720].appl generatedWSAs 0
scalar MCScenario.node[720].appl receivedWSAs 0
scalar MCScenario.node[720].nic.phy80211p busyTime 0
scalar MCScenario.node[720].nic.mac1609_4 ReceivedUnicastPackets 0
scalar MCScenario.node[720].nic.mac1609_4 ReceivedBroadcasts 0
scalar MCScenario.node[720].nic.mac1609_4 SentPackets 0
scalar MCScenario.node[720].nic.mac1609_4 SNIRLostPackets 0
scalar MCScenario.node[720].nic.mac1609_4 RXTXLostPackets 0
scalar MCScenario.node[720].nic.mac1609_4 TotalLostPackets 0
scalar MCScenario.node[720].nic.mac1609_4 DroppedPacketsInMac 0
scalar MCScenario.node[720].nic.mac1609_4 TooLittleTime 0
scalar MCScenario.node[720].nic.mac1609_4 TimesIntoBackoff 0
scalar MCScenario.node[720].nic.mac1609_4 SlotsBackoff 0
scalar MCScenario.node[720].nic.mac1609_4 NumInternalContention 0
scalar MCScenario.node[720].nic.mac1609_4 totalBusyTime 0
scalar MCScenario.node[720].veinsmobility startTime 721
scalar MCScenario.node[720].veinsmobility totalTime 123
scalar MCScenario.node[720].veinsmobility stopTime 845
scalar MCScenario.node[720].veinsmobility minSpeed 1.4254143685102
scalar MCScenario.node[720].veinsmobility maxSpeed 13.891542245471
scalar MCScenario.node[720].veinsmobility totalDistance 1567.1507692471
scalar MCScenario.node[720].veinsmobility totalCO2Emission 317.83331076164
scalar MCScenario.node[689].appl generatedWSMs 0
scalar MCScenario.node[689].appl receivedWSMs 0
scalar MCScenario.node[689].appl generatedBSMs 0
scalar MCScenario.node[689].appl receivedBSMs 0
scalar MCScenario.node[689].appl generatedWSAs 0
scalar MCScenario.node[689].appl receivedWSAs 0
scalar MCScenario.node[689].nic.phy80211p busyTime 0
scalar MCScenario.node[689].nic.mac1609_4 ReceivedUnicastPackets 0
scalar MCScenario.node[689].nic.mac1609_4 ReceivedBroadcasts 0
scalar MCScenario.node[689].nic.mac1609_4 SentPackets 0
scalar MCScenario.node[689].nic.mac1609_4 SNIRLostPackets 0
scalar MCScenario.node[689].nic.mac1609_4 RXTXLostPackets 0
scalar MCScenario.node[689].nic.mac1609_4 TotalLostPackets 0
scalar MCScenario.node[689].nic.mac1609_4 DroppedPacketsInMac 0
scalar MCScenario.node[689].nic.mac1609_4 TooLittleTime 0
scalar MCScenario.node[689].nic.mac1609_4 TimesIntoBackoff 0
scalar MCScenario.node[689].nic.mac1609_4 SlotsBackoff 0
scalar MCScenario.node[689].nic.mac1609_4 NumInternalContention 0
scalar MCScenario.node[689].nic.mac1609_4 totalBusyTime 0
scalar MCScenario.node[689].veinsmobility startTime 691
scalar MCScenario.node[689].veinsmobility totalTime 154
scalar MCScenario.node[689].veinsmobility stopTime 846
scalar MCScenario.node[689].veinsmobility minSpeed 1.3570727749461e-06
scalar MCScenario.node[689].veinsmobility maxSpeed 13.882931129122
scalar MCScenario.node[689].veinsmobility totalDistance 1755.1491911867
scalar MCScenario.node[689].veinsmobility totalCO2Emission 424.47400560243

