version 2
run WithoutChannelSwitching-0-20180922-12:37:45-13708
attr configname WithoutChannelSwitching
attr datetime 20180922-12:37:45
attr experiment WithoutChannelSwitching
attr inifile omnetpp.ini
attr iterationvars ""
attr iterationvarsf ""
attr measurement ""
attr network ProvidedSimulation.RSUScenario
attr processid 13708
attr repetition 0
attr replication #0
attr resultdir results
attr runnumber 0
attr seedset 0
param **.debug false
param **.coreDebug false
param *.playgroundSizeX 2500m
param *.playgroundSizeY 2500m
param *.playgroundSizeZ 50m
param *.annotations.draw true
param *.manager.updateInterval 1s
param *.manager.host "\"localhost\""
param *.manager.port 9998
param *.manager.autoShutdown true
param *.manager.launchConfig "xmldoc(\"cross1L.launchd.xml\")"
param *.rsu[0].mobility.x 2000
param *.rsu[0].mobility.y 2000
param *.rsu[0].mobility.z 3
param *.rsu[*].applType "\"MaxNetworkApp.TraCIDemoRSU11p\""
param *.rsu[*].appl.headerLength "80 bit"
param *.rsu[*].appl.sendBeacons false
param *.rsu[*].appl.dataOnSch false
param *.rsu[*].appl.beaconInterval 1s
param *.rsu[*].appl.beaconUserPriority 7
param *.rsu[*].appl.dataUserPriority 5
param *.connectionManager.sendDirect true
param *.connectionManager.maxInterfDist 2600m
param *.connectionManager.drawMaxIntfDist false
param *.**.nic.mac1609_4.useServiceChannel false
param *.**.nic.mac1609_4.txPower 20mW
param *.**.nic.mac1609_4.bitrate 6Mbps
param *.**.nic.phy80211p.sensitivity -89dBm
param *.**.nic.phy80211p.useThermalNoise true
param *.**.nic.phy80211p.thermalNoise -110dBm
param *.**.nic.phy80211p.decider "xmldoc(\"config.xml\")"
param *.**.nic.phy80211p.analogueModels "xmldoc(\"config.xml\")"
param *.**.nic.phy80211p.usePropagationDelay true
param *.**.nic.phy80211p.antenna "xmldoc(\"antenna.xml\", \"/root/Antenna[@id='monopole']\")"
param *.node[*].applType "\"MaxNetworkApp.TraCIDemo11p\""
param *.node[*].appl.headerLength "80 bit"
param *.node[*].appl.sendBeacons false
param *.node[*].appl.dataOnSch false
param *.node[*].appl.beaconInterval 1s
param *.node[*].appl.dataPriority 2
param *.node[*].veinsmobility.x -1
param *.node[*].veinsmobility.y -1
param *.node[*].veinsmobility.z 1.895
param *.node[*].veinsmobilityType.debug true
param *.node[*].veinsmobility.x -1
param *.node[*].veinsmobility.y -1
param *.node[*].veinsmobility.z 1.895
param *.node[*0].veinsmobility.accidentCount 1
param *.node[*0].veinsmobility.accidentStart 75s
param *.node[*0].veinsmobility.accidentDuration 50s

vector 0 RSUScenario.node[0].veinsmobility posx ETV
vector 1 RSUScenario.node[0].veinsmobility posy ETV
vector 2 RSUScenario.node[0].veinsmobility speed ETV
vector 3 RSUScenario.node[0].veinsmobility acceleration ETV
vector 4 RSUScenario.node[0].veinsmobility co2emission ETV
vector 5 RSUScenario.node[1].veinsmobility posx ETV
vector 6 RSUScenario.node[1].veinsmobility posy ETV
vector 7 RSUScenario.node[1].veinsmobility speed ETV
vector 8 RSUScenario.node[1].veinsmobility acceleration ETV
vector 9 RSUScenario.node[1].veinsmobility co2emission ETV
vector 10 RSUScenario.node[2].veinsmobility posx ETV
vector 11 RSUScenario.node[2].veinsmobility posy ETV
vector 12 RSUScenario.node[2].veinsmobility speed ETV
vector 13 RSUScenario.node[2].veinsmobility acceleration ETV
vector 14 RSUScenario.node[2].veinsmobility co2emission ETV
vector 15 RSUScenario.node[3].veinsmobility posx ETV
vector 16 RSUScenario.node[3].veinsmobility posy ETV
vector 17 RSUScenario.node[3].veinsmobility speed ETV
vector 18 RSUScenario.node[3].veinsmobility acceleration ETV
vector 19 RSUScenario.node[3].veinsmobility co2emission ETV
vector 20 RSUScenario.node[4].veinsmobility posx ETV
vector 21 RSUScenario.node[4].veinsmobility posy ETV
vector 22 RSUScenario.node[4].veinsmobility speed ETV
vector 23 RSUScenario.node[4].veinsmobility acceleration ETV
vector 24 RSUScenario.node[4].veinsmobility co2emission ETV
4	16	3	1.4960423838925
4	28	4	1.6897730456371
4	40	5	1.8843550711398
4	52	6	2.08007224832
4	64	7	2.277208365097
4	76	8	2.4760472093901
4	88	9	2.6768725691187
4	100	10	2.8799682322022
4	112	11	3.08561798656
4	124	12	3.2941056201114
4	136	13	3.5057149207757
4	148	14	3.7207296764723
4	160	15	3.6736604878015
4	172	16	1.7726283878015
4	184	17	1.7726283878015
4	196	18	1.7726283878015
4	208	19	1.7726283878015
4	220	20	1.7726283878015
4	232	21	1.7726283878015
4	244	22	1.7726283878015
4	256	23	1.7726283878015
4	268	24	1.7726283878015
4	280	25	1.7726283878015
4	292	26	1.7726283878015
4	304	27	1.7726283878015
4	314	28	1.7726283878015
4	324	29	1.7726283878015
4	334	30	1.7726283878015
4	344	31	1.7726283878015
4	361	32	1.7726283878015
4	390	33	1.7726283878015
4	419	34	1.7726283878015
4	448	35	1.7726283878015
4	477	36	1.7726283878015
4	506	37	1.7726283878015
4	535	38	1.7726283878015
4	564	39	1.7726283878015
4	593	40	1.7726283878015
4	622	41	1.7726283878015
4	651	42	1.7726283878015
4	680	43	1.7726283878015
4	713	44	1.7726283878015
4	742	45	1.7726283878015
4	771	46	1.7726283878015
4	800	47	1.7726283878015
4	829	48	1.7726283878015
4	858	49	1.7726283878015
4	887	50	1.7726283878015
4	916	51	1.7726283878015
4	949	52	1.7726283878015
4	978	53	4.1368522841228
4	1007	54	4.3632930730936
4	1036	55	4.5942425426332
4	1065	56	4.8299844806611
4	1094	57	5.0708026750965
4	1121	58	5.3169809138587
4	1148	59	5.5688029848673
4	1175	60	5.8265526760415
4	1202	61	6.0905137753007
4	1239	62	6.3609700705642
4	1299	63	4.2725232104367
4	1353	64	2.7264600104367
4	1407	65	2.7264600104367
4	1461	66	2.7264600104367
4	1515	67	2.7264600104367
4	1574	68	2.7264600104367
4	1628	69	2.7264600104367
4	1684	70	2.7264600104367
4	1740	71	2.7264600104367
4	1796	72	2.7264600104367
4	1852	73	2.7264600104367
4	1908	74	2.7264600104367
4	1964	75	2.7264600104367
4	2027	76	0.973
4	2083	77	0.973
4	2139	78	0.973
4	2191	79	0.973
4	2243	80	0.973
4	2300	81	0.973
4	2352	82	0.973
4	2404	83	0.973
4	2456	84	0.973
4	2508	85	0.973
4	2560	86	0.973
4	2616	87	0.973
4	2670	88	0.973
4	2729	89	0.973
4	2783	90	0.973
4	2837	91	0.973
4	2906	92	0.973
4	2995	93	0.973
4	3084	94	0.973
4	3173	95	0.973
4	3262	96	0.973
4	3351	97	0.973
4	3440	98	0.973
4	3529	99	0.973
4	3620	100	0.973
4	3711	101	0.973
4	3802	102	0.973
4	3893	103	0.973
4	3984	104	0.973
4	4075	105	0.973
4	4166	106	0.973
4	4257	107	0.973
4	4345	108	0.973
4	4430	109	0.973
4	4516	110	0.973
4	4608	111	0.973
4	4693	112	0.973
4	4778	113	0.973
4	4863	114	0.973
4	4953	115	0.973
4	5041	116	0.973
4	5132	117	0.973
4	5221	118	0.973
4	5310	119	0.973
4	5399	120	0.973
4	5488	121	0.973
4	5595	122	0.973
4	5737	123	0.973
4	5869	124	0.973
4	6001	125	0.973
4	6134	126	1.3028792979866
4	6266	127	1.4960423838925
4	6398	128	1.6897730456371
4	6530	129	1.8843550711398
4	6664	130	2.08007224832
4	6798	131	2.277208365097
4	6932	132	2.4760472093901
4	7066	133	2.6768725691187
4	7200	134	2.8799682322022
4	7331	135	3.08561798656
4	7459	136	3.2941056201114
4	7587	137	3.5057149207757
3	16	3	0.8
3	28	4	0.8
3	40	5	0.8
3	52	6	0.8
3	64	7	0.8
3	76	8	0.8
3	88	9	0.8
3	100	10	0.8
3	112	11	0.8
3	124	12	0.8
3	136	13	0.8
3	148	14	0.8
3	160	15	0.71
3	172	16	0
3	184	17	0
3	196	18	0
3	208	19	0
3	220	20	0
3	232	21	0
3	244	22	0
3	256	23	0
3	268	24	0
3	280	25	0
3	292	26	0
3	304	27	0
3	314	28	0
3	324	29	0
3	334	30	0
3	344	31	0
3	361	32	0
3	390	33	0
3	419	34	0
3	448	35	0
3	477	36	0
3	506	37	0
3	535	38	0
3	564	39	0
3	593	40	0
3	622	41	0
3	651	42	0
3	680	43	0
3	713	44	0
3	742	45	0
3	771	46	0
3	800	47	0
3	829	48	0
3	858	49	0
3	887	50	0
3	916	51	0
3	949	52	0
3	978	53	0.8
3	1007	54	0.8
3	1036	55	0.8
3	1065	56	0.8
3	1094	57	0.8
3	1121	58	0.8
3	1148	59	0.8
3	1175	60	0.8
3	1202	61	0.8
3	1239	62	0.8
3	1299	63	0.32999999999999
3	1353	64	0
3	1407	65	0
3	1461	66	0
3	1515	67	0
3	1574	68	0
3	1628	69	0
3	1684	70	0
3	1740	71	0
3	1796	72	0
3	1852	73	0
3	1908	74	0
3	1964	75	0
3	2027	76	-4.5
3	2083	77	-4.5
3	2139	78	-4.5
3	2191	79	-4.5
3	2243	80	-1.44
3	2300	81	0
3	2352	82	0
3	2404	83	0
3	2456	84	0
3	2508	85	0
3	2560	86	0
3	2616	87	0
3	2670	88	0
3	2729	89	0
3	2783	90	0
3	2837	91	0
3	2906	92	0
3	2995	93	0
3	3084	94	0
3	3173	95	0
3	3262	96	0
3	3351	97	0
3	3440	98	0
3	3529	99	0
3	3620	100	0
3	3711	101	0
3	3802	102	0
3	3893	103	0
3	3984	104	0
3	4075	105	0
3	4166	106	0
3	4257	107	0
3	4345	108	0
3	4430	109	0
3	4516	110	0
3	4608	111	0
3	4693	112	0
3	4778	113	0
3	4863	114	0
3	4953	115	0
3	5041	116	0
3	5132	117	0
3	5221	118	0
3	5310	119	0
3	5399	120	0
3	5488	121	0
3	5595	122	0
3	5737	123	0
3	5869	124	0
3	6001	125	0
3	6134	126	0.8
3	6266	127	0.8
3	6398	128	0.8
3	6530	129	0.8
3	6664	130	0.8
3	6798	131	0.8
3	6932	132	0.8
3	7066	133	0.8
3	7200	134	0.8
3	7331	135	0.8
3	7459	136	0.8
3	7587	137	0.8
2	4	2	0.8
2	16	3	1.6
2	28	4	2.4
2	40	5	3.2
2	52	6	4
2	64	7	4.8
2	76	8	5.6
2	88	9	6.4
2	100	10	7.2
2	112	11	8
2	124	12	8.8
2	136	13	9.6
2	148	14	10.4
2	160	15	11.11
2	172	16	11.11
2	184	17	11.11
2	196	18	11.11
2	208	19	11.11
2	220	20	11.11
2	232	21	11.11
2	244	22	11.11
2	256	23	11.11
2	268	24	11.11
2	280	25	11.11
2	292	26	11.11
2	304	27	11.11
2	314	28	11.11
2	324	29	11.11
2	334	30	11.11
2	344	31	11.11
2	361	32	11.11
2	390	33	11.11
2	419	34	11.11
2	448	35	11.11
2	477	36	11.11
2	506	37	11.11
2	535	38	11.11
2	564	39	11.11
2	593	40	11.11
2	622	41	11.11
2	651	42	11.11
2	680	43	11.11
2	713	44	11.11
2	742	45	11.11
2	771	46	11.11
2	800	47	11.11
2	829	48	11.11
2	858	49	11.11
2	887	50	11.11
2	916	51	11.11
2	949	52	11.11
2	978	53	11.91
2	1007	54	12.71
2	1036	55	13.51
2	1065	56	14.31
2	1094	57	15.11
2	1121	58	15.91
2	1148	59	16.71
2	1175	60	17.51
2	1202	61	18.31
2	1239	62	19.11
2	1299	63	19.44
2	1353	64	19.44
2	1407	65	19.44
2	1461	66	19.44
2	1515	67	19.44
2	1574	68	19.44
2	1628	69	19.44
2	1684	70	19.44
2	1740	71	19.44
2	1796	72	19.44
2	1852	73	19.44
2	1908	74	19.44
2	1964	75	19.44
2	2027	76	14.94
2	2083	77	10.44
2	2139	78	5.94
2	2191	79	1.44
2	2243	80	0
2	2300	81	0
2	2352	82	0
2	2404	83	0
2	2456	84	0
2	2508	85	0
2	2560	86	0
2	2616	87	0
2	2670	88	0
2	2729	89	0
2	2783	90	0
2	2837	91	0
2	2906	92	0
2	2995	93	0
2	3084	94	0
2	3173	95	0
2	3262	96	0
2	3351	97	0
2	3440	98	0
2	3529	99	0
2	3620	100	0
2	3711	101	0
2	3802	102	0
2	3893	103	0
2	3984	104	0
2	4075	105	0
2	4166	106	0
2	4257	107	0
2	4345	108	0
2	4430	109	0
2	4516	110	0
2	4608	111	0
2	4693	112	0
2	4778	113	0
2	4863	114	0
2	4953	115	0
2	5041	116	0
2	5132	117	0
2	5221	118	0
2	5310	119	0
2	5399	120	0
2	5488	121	0
2	5595	122	0
2	5737	123	0
2	5869	124	0
2	6001	125	0
2	6134	126	0.8
2	6266	127	1.6
2	6398	128	2.4
2	6530	129	3.2
2	6664	130	4
2	6798	131	4.8
2	6932	132	5.6
2	7066	133	6.4
2	7200	134	7.2
2	7331	135	8
2	7459	136	8.8
2	7587	137	9.6
1	2	1	23.35
1	4	2	23.35
1	16	3	23.35
1	28	4	23.35
1	40	5	23.35
1	52	6	23.35
1	64	7	23.35
1	76	8	23.35
1	88	9	23.35
1	100	10	23.35
1	112	11	23.35
1	124	12	23.35
1	136	13	23.35
1	148	14	23.35
1	160	15	23.35
1	172	16	23.35
1	184	17	23.35
1	196	18	23.35
1	208	19	23.35
1	220	20	23.35
1	232	21	23.35
1	244	22	23.35
1	256	23	23.35
1	268	24	23.35
1	280	25	23.35
1	292	26	23.35
1	304	27	23.35
1	314	28	23.35
1	324	29	23.35
1	334	30	23.35
1	344	31	23.35
1	361	32	23.35
1	390	33	23.35
1	419	34	23.35
1	448	35	23.35
1	477	36	23.35
1	506	37	23.35
1	535	38	23.35
1	564	39	23.35
1	593	40	23.35
1	622	41	23.35
1	651	42	23.35
1	680	43	23.35
1	713	44	23.35
1	742	45	23.35
1	771	46	23.35
1	800	47	23.35
1	829	48	23.35
1	858	49	23.35
1	887	50	23.35
1	916	51	23.35
1	949	52	23.35
1	978	53	23.394479980085
1	1007	54	26.65
1	1036	55	26.65
1	1065	56	26.65
1	1094	57	26.65
1	1121	58	26.65
1	1148	59	26.65
1	1175	60	26.65
1	1202	61	26.65
1	1239	62	26.65
1	1299	63	26.65
1	1353	64	26.65
1	1407	65	26.65
1	1461	66	26.65
1	1515	67	26.65
1	1574	68	26.65
1	1628	69	26.65
1	1684	70	26.65
1	1740	71	26.65
1	1796	72	26.65
1	1852	73	26.65
1	1908	74	26.65
1	1964	75	26.65
1	2027	76	26.65
1	2083	77	26.65
1	2139	78	26.65
1	2191	79	26.65
1	2243	80	26.65
1	2300	81	26.65
1	2352	82	26.65
1	2404	83	26.65
1	2456	84	26.65
1	2508	85	26.65
1	2560	86	26.65
1	2616	87	26.65
1	2670	88	26.65
1	2729	89	26.65
1	2783	90	26.65
1	2837	91	26.65
1	2906	92	26.65
1	2995	93	26.65
1	3084	94	26.65
1	3173	95	26.65
1	3262	96	26.65
1	3351	97	26.65
1	3440	98	26.65
1	3529	99	26.65
1	3620	100	26.65
1	3711	101	26.65
1	3802	102	26.65
1	3893	103	26.65
1	3984	104	26.65
1	4075	105	26.65
1	4166	106	26.65
1	4257	107	26.65
1	4345	108	26.65
1	4430	109	26.65
1	4516	110	26.65
1	4608	111	26.65
1	4693	112	26.65
1	4778	113	26.65
1	4863	114	26.65
1	4953	115	26.65
1	5041	116	26.65
1	5132	117	26.65
1	5221	118	26.65
1	5310	119	26.65
1	5399	120	26.65
1	5488	121	26.65
1	5595	122	26.65
1	5737	123	26.65
1	5869	124	26.65
1	6001	125	26.65
1	6134	126	26.65
1	6266	127	26.65
1	6398	128	26.65
1	6530	129	26.65
1	6664	130	26.65
1	6798	131	26.65
1	6932	132	26.65
1	7066	133	26.65
1	7200	134	26.65
1	7331	135	26.65
1	7459	136	26.65
1	7587	137	26.65
0	2	1	519.9
0	4	2	519.9
0	16	3	519.1
0	28	4	517.5
0	40	5	515.1
0	52	6	511.9
0	64	7	507.9
0	76	8	503.1
0	88	9	497.5
0	100	10	491.1
0	112	11	483.9
0	124	12	475.9
0	136	13	467.1
0	148	14	457.5
0	160	15	447.1
0	172	16	435.99
0	184	17	424.88
0	196	18	413.77
0	208	19	402.66
0	220	20	391.55
0	232	21	380.44
0	244	22	369.33
0	256	23	358.22
0	268	24	347.11
0	280	25	336
0	292	26	324.89
0	304	27	313.78
0	314	28	302.67
0	324	29	291.56
0	334	30	280.45
0	344	31	269.34
0	361	32	258.23
0	390	33	247.12
0	419	34	236.01
0	448	35	224.9
0	477	36	213.79
0	506	37	202.68
0	535	38	191.57
0	564	39	180.46
0	593	40	169.35
0	622	41	158.24
0	651	42	147.13
0	680	43	136.02
0	713	44	124.91
0	742	45	113.8
0	771	46	102.69
0	800	47	91.58
0	829	48	80.47
0	858	49	69.36
0	887	50	58.25
0	916	51	47.14
0	949	52	36.03
0	978	53	24.933547981559
0	1007	54	32.17
0	1036	55	44.88
0	1065	56	58.39
0	1094	57	72.7
0	1121	58	87.81
0	1148	59	103.72
0	1175	60	120.43
0	1202	61	137.94
0	1239	62	156.25
0	1299	63	175.36
0	1353	64	194.8
0	1407	65	214.24
0	1461	66	233.68
0	1515	67	253.12
0	1574	68	272.56
0	1628	69	292
0	1684	70	311.44
0	1740	71	330.88
0	1796	72	350.32
0	1852	73	369.76
0	1908	74	389.2
0	1964	75	408.64
0	2027	76	428.08
0	2083	77	443.02
0	2139	78	453.46
0	2191	79	459.4
0	2243	80	460.84
0	2300	81	460.84
0	2352	82	460.84
0	2404	83	460.84
0	2456	84	460.84
0	2508	85	460.84
0	2560	86	460.84
0	2616	87	460.84
0	2670	88	460.84
0	2729	89	460.84
0	2783	90	460.84
0	2837	91	460.84
0	2906	92	460.84
0	2995	93	460.84
0	3084	94	460.84
0	3173	95	460.84
0	3262	96	460.84
0	3351	97	460.84
0	3440	98	460.84
0	3529	99	460.84
0	3620	100	460.84
0	3711	101	460.84
0	3802	102	460.84
0	3893	103	460.84
0	3984	104	460.84
0	4075	105	460.84
0	4166	106	460.84
0	4257	107	460.84
0	4345	108	460.84
0	4430	109	460.84
0	4516	110	460.84
0	4608	111	460.84
0	4693	112	460.84
0	4778	113	460.84
0	4863	114	460.84
0	4953	115	460.84
0	5041	116	460.84
0	5132	117	460.84
0	5221	118	460.84
0	5310	119	460.84
0	5399	120	460.84
0	5488	121	460.84
0	5595	122	460.84
0	5737	123	460.84
0	5869	124	460.84
0	6001	125	460.84
0	6134	126	460.84
0	6266	127	461.64
0	6398	128	463.24
0	6530	129	465.64
0	6664	130	468.84
0	6798	131	472.84
0	6932	132	477.64
0	7066	133	483.24
0	7200	134	489.64
0	7331	135	496.84
0	7459	136	504.84
0	7587	137	513.64
9	390	33	1.4960423838925
9	419	34	1.6897730456371
9	448	35	1.8843550711398
9	477	36	2.08007224832
9	506	37	2.277208365097
9	535	38	2.4760472093901
9	564	39	2.6768725691187
9	593	40	2.8799682322022
9	622	41	3.08561798656
9	651	42	3.2941056201114
9	680	43	3.5057149207757
9	713	44	3.7207296764723
9	742	45	3.6736604878015
9	771	46	1.7726283878015
9	800	47	1.7726283878015
9	829	48	1.7726283878015
9	858	49	1.7726283878015
9	887	50	1.7726283878015
9	916	51	1.7726283878015
9	949	52	1.7726283878015
9	978	53	1.7726283878015
9	1007	54	1.7726283878015
9	1036	55	1.7726283878015
9	1065	56	1.7726283878015
9	1094	57	1.7726283878015
9	1121	58	1.7726283878015
9	1148	59	1.7726283878015
9	1175	60	1.7726283878015
9	1202	61	1.7726283878015
9	1239	62	1.7726283878015
9	1299	63	1.7726283878015
9	1353	64	1.7726283878015
9	1407	65	1.7726283878015
9	1461	66	1.7726283878015
9	1515	67	1.7726283878015
9	1574	68	1.7726283878015
9	1628	69	1.7726283878015
9	1684	70	1.7726283878015
9	1740	71	1.7726283878015
9	1796	72	1.7726283878015
9	1852	73	1.7726283878015
9	1908	74	1.7726283878015
9	1964	75	1.7726283878015
9	2027	76	1.7726283878015
9	2083	77	1.7726283878015
9	2139	78	1.7726283878015
9	2191	79	1.7726283878015
9	2243	80	1.7726283878015
9	2300	81	1.7726283878015
9	2352	82	1.7726283878015
9	2404	83	4.1368522841228
9	2456	84	4.3632930730936
9	2508	85	4.5942425426332
9	2560	86	4.8299844806611
9	2616	87	5.0708026750965
9	2670	88	5.3169809138587
9	2729	89	5.5688029848673
9	2783	90	5.8265526760415
9	2837	91	6.0905137753007
9	2906	92	6.3609700705642
9	2995	93	4.2725232104367
9	3084	94	2.7264600104367
9	3173	95	2.7264600104367
9	3262	96	2.7264600104367
9	3351	97	2.7264600104367
9	3440	98	2.7264600104367
9	3529	99	2.7264600104367
9	3620	100	2.7264600104367
9	3711	101	2.7264600104367
9	3802	102	2.7264600104367
9	3893	103	2.7264600104367
9	3984	104	2.7264600104367
9	4075	105	0.973
9	4166	106	0.973
9	4257	107	0.973
9	4345	108	0.973
9	4430	109	0.973
9	4516	110	0.973
9	4608	111	0.973
9	4693	112	0.973
9	4778	113	0.973
9	4863	114	0.973
9	4953	115	0.973
9	5041	116	0.973
9	5132	117	0.973
9	5221	118	0.973
9	5310	119	0.973
9	5399	120	0.973
9	5488	121	0.973
9	5595	122	0.973
9	5737	123	0.973
9	5869	124	0.973
9	6001	125	0.973
9	6134	126	0.973
9	6266	127	1.3028792979865
9	6398	128	1.4960423838925
9	6530	129	1.6897730456371
9	6664	130	1.8843550711398
9	6798	131	2.08007224832
9	6932	132	2.2772083650969
9	7066	133	2.4760472093901
9	7200	134	2.6768725691187
9	7331	135	2.8799682322022
9	7459	136	3.08561798656
9	7587	137	3.2941056201113
9	7711	138	3.5057149207757
8	390	33	0.8
8	419	34	0.8
8	448	35	0.8
8	477	36	0.8
8	506	37	0.8
8	535	38	0.8
8	564	39	0.8
8	593	40	0.8
8	622	41	0.8
8	651	42	0.8
8	680	43	0.8
8	713	44	0.8
8	742	45	0.71
8	771	46	0
8	800	47	0
8	829	48	0
8	858	49	0
8	887	50	0
8	916	51	0
8	949	52	0
8	978	53	0
8	1007	54	0
8	1036	55	0
8	1065	56	0
8	1094	57	0
8	1121	58	0
8	1148	59	0
8	1175	60	0
8	1202	61	0
8	1239	62	0
8	1299	63	0
8	1353	64	0
8	1407	65	0
8	1461	66	0
8	1515	67	0
8	1574	68	0
8	1628	69	0
8	1684	70	0
8	1740	71	0
8	1796	72	0
8	1852	73	0
8	1908	74	0
8	1964	75	0
8	2027	76	0
8	2083	77	0
8	2139	78	0
8	2191	79	0
8	2243	80	0
8	2300	81	0
8	2352	82	0
8	2404	83	0.8
8	2456	84	0.8
8	2508	85	0.8
8	2560	86	0.8
8	2616	87	0.8
8	2670	88	0.8
8	2729	89	0.8
8	2783	90	0.8
8	2837	91	0.8
8	2906	92	0.8
8	2995	93	0.32999999999999
8	3084	94	0
8	3173	95	0
8	3262	96	0
8	3351	97	0
8	3440	98	0
8	3529	99	0
8	3620	100	0
8	3711	101	0
8	3802	102	0
8	3893	103	0
8	3984	104	0
8	4075	105	-1.4002
8	4166	106	-4.5
8	4257	107	-4.5
8	4345	108	-4.5
8	4430	109	-4.5
8	4516	110	-0.0398
8	4608	111	0
8	4693	112	0
8	4778	113	0
8	4863	114	0
8	4953	115	0
8	5041	116	0
8	5132	117	0
8	5221	118	0
8	5310	119	0
8	5399	120	0
8	5488	121	0
8	5595	122	0
8	5737	123	0
8	5869	124	0
8	6001	125	0
8	6134	126	0
8	6266	127	0.79999999999993
8	6398	128	0.8
8	6530	129	0.8
8	6664	130	0.8
8	6798	131	0.8
8	6932	132	0.8
8	7066	133	0.8
8	7200	134	0.8
8	7331	135	0.8
8	7459	136	0.8
8	7587	137	0.8
8	7711	138	0.8
7	361	32	0.8
7	390	33	1.6
7	419	34	2.4
7	448	35	3.2
7	477	36	4
7	506	37	4.8
7	535	38	5.6
7	564	39	6.4
7	593	40	7.2
7	622	41	8
7	651	42	8.8
7	680	43	9.6
7	713	44	10.4
7	742	45	11.11
7	771	46	11.11
7	800	47	11.11
7	829	48	11.11
7	858	49	11.11
7	887	50	11.11
7	916	51	11.11
7	949	52	11.11
7	978	53	11.11
7	1007	54	11.11
7	1036	55	11.11
7	1065	56	11.11
7	1094	57	11.11
7	1121	58	11.11
7	1148	59	11.11
7	1175	60	11.11
7	1202	61	11.11
7	1239	62	11.11
7	1299	63	11.11
7	1353	64	11.11
7	1407	65	11.11
7	1461	66	11.11
7	1515	67	11.11
7	1574	68	11.11
7	1628	69	11.11
7	1684	70	11.11
7	1740	71	11.11
7	1796	72	11.11
7	1852	73	11.11
7	1908	74	11.11
7	1964	75	11.11
7	2027	76	11.11
7	2083	77	11.11
7	2139	78	11.11
7	2191	79	11.11
7	2243	80	11.11
7	2300	81	11.11
7	2352	82	11.11
7	2404	83	11.91
7	2456	84	12.71
7	2508	85	13.51
7	2560	86	14.31
7	2616	87	15.11
7	2670	88	15.91
7	2729	89	16.71
7	2783	90	17.51
7	2837	91	18.31
7	2906	92	19.11
7	2995	93	19.44
7	3084	94	19.44
7	3173	95	19.44
7	3262	96	19.44
7	3351	97	19.44
7	3440	98	19.44
7	3529	99	19.44
7	3620	100	19.44
7	3711	101	19.44
7	3802	102	19.44
7	3893	103	19.44
7	3984	104	19.44
7	4075	105	18.0398
7	4166	106	13.5398
7	4257	107	9.0398
7	4345	108	4.5398
7	4430	109	0.0398
7	4516	110	0
7	4608	111	0
7	4693	112	0
7	4778	113	0
7	4863	114	0
7	4953	115	0
7	5041	116	0
7	5132	117	0
7	5221	118	0
7	5310	119	0
7	5399	120	0
7	5488	121	0
7	5595	122	0
7	5737	123	0
7	5869	124	0
7	6001	125	0
7	6134	126	0
7	6266	127	0.79999999999993
7	6398	128	1.5999999999999
7	6530	129	2.3999999999999
7	6664	130	3.1999999999999
7	6798	131	3.9999999999999
7	6932	132	4.7999999999999
7	7066	133	5.5999999999999
7	7200	134	6.3999999999999
7	7331	135	7.1999999999999
7	7459	136	7.9999999999999
7	7587	137	8.7999999999999
7	7711	138	9.5999999999999
6	344	31	23.35
6	361	32	23.35
6	390	33	23.35
6	419	34	23.35
6	448	35	23.35
6	477	36	23.35
6	506	37	23.35
6	535	38	23.35
6	564	39	23.35
6	593	40	23.35
6	622	41	23.35
6	651	42	23.35
6	680	43	23.35
6	713	44	23.35
6	742	45	23.35
6	771	46	23.35
6	800	47	23.35
6	829	48	23.35
6	858	49	23.35
6	887	50	23.35
6	916	51	23.35
6	949	52	23.35
6	978	53	23.35
6	1007	54	23.35
6	1036	55	23.35
6	1065	56	23.35
6	1094	57	23.35
6	1121	58	23.35
6	1148	59	23.35
6	1175	60	23.35
6	1202	61	23.35
6	1239	62	23.35
6	1299	63	23.35
6	1353	64	23.35
6	1407	65	23.35
6	1461	66	23.35
6	1515	67	23.35
6	1574	68	23.35
6	1628	69	23.35
6	1684	70	23.35
6	1740	71	23.35
6	1796	72	23.35
6	1852	73	23.35
6	1908	74	23.35
6	1964	75	23.35
6	2027	76	23.35
6	2083	77	23.35
6	2139	78	23.35
6	2191	79	23.35
6	2243	80	23.35
6	2300	81	23.35
6	2352	82	23.35
6	2404	83	23.394479980085
6	2456	84	26.65
6	2508	85	26.65
6	2560	86	26.65
6	2616	87	26.65
6	2670	88	26.65
6	2729	89	26.65
6	2783	90	26.65
6	2837	91	26.65
6	2906	92	26.65
6	2995	93	26.65
6	3084	94	26.65
6	3173	95	26.65
6	3262	96	26.65
6	3351	97	26.65
6	3440	98	26.65
6	3529	99	26.65
6	3620	100	26.65
6	3711	101	26.65
6	3802	102	26.65
6	3893	103	26.65
6	3984	104	26.65
6	4075	105	26.65
6	4166	106	26.65
6	4257	107	26.65
6	4345	108	26.65
6	4430	109	26.65
6	4516	110	26.65
6	4608	111	26.65
6	4693	112	26.65
6	4778	113	26.65
6	4863	114	26.65
6	4953	115	26.65
6	5041	116	26.65
6	5132	117	26.65
6	5221	118	26.65
6	5310	119	26.65
6	5399	120	26.65
6	5488	121	26.65
6	5595	122	26.65
6	5737	123	26.65
6	5869	124	26.65
6	6001	125	26.65
6	6134	126	26.65
6	6266	127	26.65
6	6398	128	26.65
6	6530	129	26.65
6	6664	130	26.65
6	6798	131	26.65
6	6932	132	26.65
6	7066	133	26.65
6	7200	134	26.65
6	7331	135	26.65
6	7459	136	26.65
6	7587	137	26.65
6	7711	138	26.65
5	344	31	519.9
5	361	32	519.9
5	390	33	519.1
5	419	34	517.5
5	448	35	515.1
5	477	36	511.9
5	506	37	507.9
5	535	38	503.1
5	564	39	497.5
5	593	40	491.1
5	622	41	483.9
5	651	42	475.9
5	680	43	467.1
5	713	44	457.5
5	742	45	447.1
5	771	46	435.99
5	800	47	424.88
5	829	48	413.77
5	858	49	402.66
5	887	50	391.55
5	916	51	380.44
5	949	52	369.33
5	978	53	358.22
5	1007	54	347.11
5	1036	55	336
5	1065	56	324.89
5	1094	57	313.78
5	1121	58	302.67
5	1148	59	291.56
5	1175	60	280.45
5	1202	61	269.34
5	1239	62	258.23
5	1299	63	247.12
5	1353	64	236.01
5	1407	65	224.9
5	1461	66	213.79
5	1515	67	202.68
5	1574	68	191.57
5	1628	69	180.46
5	1684	70	169.35
5	1740	71	158.24
5	1796	72	147.13
5	1852	73	136.02
5	1908	74	124.91
5	1964	75	113.8
5	2027	76	102.69
5	2083	77	91.58
5	2139	78	80.47
5	2191	79	69.36
5	2243	80	58.25
5	2300	81	47.14
5	2352	82	36.03
5	2404	83	24.933547981559
5	2456	84	32.17
5	2508	85	44.88
5	2560	86	58.39
5	2616	87	72.7
5	2670	88	87.81
5	2729	89	103.72
5	2783	90	120.43
5	2837	91	137.94
5	2906	92	156.25
5	2995	93	175.36
5	3084	94	194.8
5	3173	95	214.24
5	3262	96	233.68
5	3351	97	253.12
5	3440	98	272.56
5	3529	99	292
5	3620	100	311.44
5	3711	101	330.88
5	3802	102	350.32
5	3893	103	369.76
5	3984	104	389.2
5	4075	105	408.64
5	4166	106	426.6798
5	4257	107	440.2196
5	4345	108	449.2594
5	4430	109	453.7992
5	4516	110	453.839
5	4608	111	453.839
5	4693	112	453.839
5	4778	113	453.839
5	4863	114	453.839
5	4953	115	453.839
5	5041	116	453.839
5	5132	117	453.839
5	5221	118	453.839
5	5310	119	453.839
5	5399	120	453.839
5	5488	121	453.839
5	5595	122	453.839
5	5737	123	453.839
5	5869	124	453.839
5	6001	125	453.839
5	6134	126	453.839
5	6266	127	453.839
5	6398	128	454.639
5	6530	129	456.239
5	6664	130	458.639
5	6798	131	461.839
5	6932	132	465.839
5	7066	133	470.639
5	7200	134	476.239
5	7331	135	482.639
5	7459	136	489.839
5	7587	137	497.839
5	7711	138	506.639
14	1299	63	1.4960423838925
14	1353	64	1.6897730456371
14	1407	65	1.8843550711398
14	1461	66	2.08007224832
14	1515	67	2.277208365097
14	1574	68	2.4760472093901
14	1628	69	2.6768725691187
14	1684	70	2.8799682322022
14	1740	71	3.08561798656
14	1796	72	3.2941056201114
14	1852	73	3.5057149207757
14	1908	74	3.7207296764723
14	1964	75	3.6736604878015
14	2027	76	1.7726283878015
14	2083	77	1.7726283878015
14	2139	78	1.7726283878015
14	2191	79	1.7726283878015
14	2243	80	1.7726283878015
14	2300	81	1.7726283878015
14	2352	82	1.7726283878015
14	2404	83	1.7726283878015
14	2456	84	1.7726283878015
14	2508	85	1.7726283878015
14	2560	86	1.7726283878015
14	2616	87	1.7726283878015
14	2670	88	1.7726283878015
14	2729	89	1.7726283878015
14	2783	90	1.7726283878015
14	2837	91	1.7726283878015
14	2906	92	1.7726283878015
14	2995	93	1.7726283878015
14	3084	94	1.7726283878015
14	3173	95	1.7726283878015
14	3262	96	1.7726283878015
14	3351	97	1.7726283878015
14	3440	98	1.7726283878015
14	3529	99	1.7726283878015
14	3620	100	1.7726283878015
14	3711	101	1.7726283878015
14	3802	102	1.7726283878015
14	3893	103	1.7726283878015
14	3984	104	1.7726283878015
14	4075	105	1.7726283878015
14	4166	106	1.7726283878015
14	4257	107	1.7726283878015
14	4345	108	1.7726283878015
14	4430	109	1.7726283878015
14	4516	110	1.7726283878015
14	4608	111	1.7726283878015
14	4693	112	1.7726283878015
14	4778	113	4.1368522841228
14	4863	114	4.3632930730936
14	4953	115	4.5942425426332
14	5041	116	4.8299844806611
14	5132	117	5.0708026750965
14	5221	118	5.3169809138587
14	5310	119	5.5688029848673
14	5399	120	5.8265526760415
14	5488	121	6.0905137753007
14	5595	122	6.3609700705642
14	5737	123	4.2725232104367
14	5869	124	2.7264600104367
14	6001	125	2.7264600104367
14	6134	126	2.7264600104367
14	6266	127	2.7264600104367
14	6398	128	2.7264600104367
14	6530	129	2.7264600104367
14	6664	130	2.7264600104367
14	6798	131	2.7264600104367
14	6932	132	2.7264600104367
14	7066	133	2.7264600104367
14	7200	134	2.7264600104367
14	7331	135	2.7264600104367
14	7459	136	2.7264600104367
14	7587	137	0.973
14	7711	138	0.973
14	7794	139	0.973
14	7846	140	5.2665903532513
13	1299	63	0.8
13	1353	64	0.8
13	1407	65	0.8
13	1461	66	0.8
13	1515	67	0.8
13	1574	68	0.8
13	1628	69	0.8
13	1684	70	0.8
13	1740	71	0.8
13	1796	72	0.8
13	1852	73	0.8
13	1908	74	0.8
13	1964	75	0.71
13	2027	76	0
13	2083	77	0
13	2139	78	0
13	2191	79	0
13	2243	80	0
13	2300	81	0
13	2352	82	0
13	2404	83	0
13	2456	84	0
13	2508	85	0
13	2560	86	0
13	2616	87	0
13	2670	88	0
13	2729	89	0
13	2783	90	0
13	2837	91	0
13	2906	92	0
13	2995	93	0
13	3084	94	0
13	3173	95	0
13	3262	96	0
13	3351	97	0
13	3440	98	0
13	3529	99	0
13	3620	100	0
13	3711	101	0
13	3802	102	0
13	3893	103	0
13	3984	104	0
13	4075	105	0
13	4166	106	0
13	4257	107	0
13	4345	108	0
13	4430	109	0
13	4516	110	0
13	4608	111	0
13	4693	112	0
13	4778	113	0.8
13	4863	114	0.8
13	4953	115	0.8
13	5041	116	0.8
13	5132	117	0.8
13	5221	118	0.8
13	5310	119	0.8
13	5399	120	0.8
13	5488	121	0.8
13	5595	122	0.8
13	5737	123	0.32999999999999
13	5869	124	0
13	6001	125	0
13	6134	126	0
13	6266	127	0
13	6398	128	0
13	6530	129	0
13	6664	130	0
13	6798	131	0
13	6932	132	0
13	7066	133	0
13	7200	134	0
13	7331	135	0
13	7459	136	0
13	7587	137	-1.0764000000001
13	7711	138	-2.1
13	7794	139	-1.3159
13	7846	140	0.8
12	1239	62	0.8
12	1299	63	1.6
12	1353	64	2.4
12	1407	65	3.2
12	1461	66	4
12	1515	67	4.8
12	1574	68	5.6
12	1628	69	6.4
12	1684	70	7.2
12	1740	71	8
12	1796	72	8.8
12	1852	73	9.6
12	1908	74	10.4
12	1964	75	11.11
12	2027	76	11.11
12	2083	77	11.11
12	2139	78	11.11
12	2191	79	11.11
12	2243	80	11.11
12	2300	81	11.11
12	2352	82	11.11
12	2404	83	11.11
12	2456	84	11.11
12	2508	85	11.11
12	2560	86	11.11
12	2616	87	11.11
12	2670	88	11.11
12	2729	89	11.11
12	2783	90	11.11
12	2837	91	11.11
12	2906	92	11.11
12	2995	93	11.11
12	3084	94	11.11
12	3173	95	11.11
12	3262	96	11.11
12	3351	97	11.11
12	3440	98	11.11
12	3529	99	11.11
12	3620	100	11.11
12	3711	101	11.11
12	3802	102	11.11
12	3893	103	11.11
12	3984	104	11.11
12	4075	105	11.11
12	4166	106	11.11
12	4257	107	11.11
12	4345	108	11.11
12	4430	109	11.11
12	4516	110	11.11
12	4608	111	11.11
12	4693	112	11.11
12	4778	113	11.91
12	4863	114	12.71
12	4953	115	13.51
12	5041	116	14.31
12	5132	117	15.11
12	5221	118	15.91
12	5310	119	16.71
12	5399	120	17.51
12	5488	121	18.31
12	5595	122	19.11
12	5737	123	19.44
12	5869	124	19.44
12	6001	125	19.44
12	6134	126	19.44
12	6266	127	19.44
12	6398	128	19.44
12	6530	129	19.44
12	6664	130	19.44
12	6798	131	19.44
12	6932	132	19.44
12	7066	133	19.44
12	7200	134	19.44
12	7331	135	19.44
12	7459	136	19.44
12	7587	137	18.3636
12	7711	138	16.2636
12	7794	139	14.9477
12	7846	140	15.7477
11	1202	61	23.35
11	1239	62	23.35
11	1299	63	23.35
11	1353	64	23.35
11	1407	65	23.35
11	1461	66	23.35
11	1515	67	23.35
11	1574	68	23.35
11	1628	69	23.35
11	1684	70	23.35
11	1740	71	23.35
11	1796	72	23.35
11	1852	73	23.35
11	1908	74	23.35
11	1964	75	23.35
11	2027	76	23.35
11	2083	77	23.35
11	2139	78	23.35
11	2191	79	23.35
11	2243	80	23.35
11	2300	81	23.35
11	2352	82	23.35
11	2404	83	23.35
11	2456	84	23.35
11	2508	85	23.35
11	2560	86	23.35
11	2616	87	23.35
11	2670	88	23.35
11	2729	89	23.35
11	2783	90	23.35
11	2837	91	23.35
11	2906	92	23.35
11	2995	93	23.35
11	3084	94	23.35
11	3173	95	23.35
11	3262	96	23.35
11	3351	97	23.35
11	3440	98	23.35
11	3529	99	23.35
11	3620	100	23.35
11	3711	101	23.35
11	3802	102	23.35
11	3893	103	23.35
11	3984	104	23.35
11	4075	105	23.35
11	4166	106	23.35
11	4257	107	23.35
11	4345	108	23.35
11	4430	109	23.35
11	4516	110	23.35
11	4608	111	23.35
11	4693	112	23.35
11	4778	113	23.394479980085
11	4863	114	26.65
11	4953	115	26.65
11	5041	116	26.65
11	5132	117	26.65
11	5221	118	26.65
11	5310	119	26.65
11	5399	120	26.65
11	5488	121	26.65
11	5595	122	26.65
11	5737	123	26.65
11	5869	124	26.65
11	6001	125	26.65
11	6134	126	26.65
11	6266	127	26.65
11	6398	128	26.65
11	6530	129	26.65
11	6664	130	26.65
11	6798	131	26.65
11	6932	132	26.65
11	7066	133	26.65
11	7200	134	26.65
11	7331	135	26.65
11	7459	136	26.65
11	7587	137	26.65
11	7711	138	26.65
11	7794	139	26.65
11	7846	140	26.65
10	1202	61	519.9
10	1239	62	519.9
10	1299	63	519.1
10	1353	64	517.5
10	1407	65	515.1
10	1461	66	511.9
10	1515	67	507.9
10	1574	68	503.1
10	1628	69	497.5
10	1684	70	491.1
10	1740	71	483.9
10	1796	72	475.9
10	1852	73	467.1
10	1908	74	457.5
10	1964	75	447.1
10	2027	76	435.99
10	2083	77	424.88
10	2139	78	413.77
10	2191	79	402.66
10	2243	80	391.55
10	2300	81	380.44
10	2352	82	369.33
10	2404	83	358.22
10	2456	84	347.11
10	2508	85	336
10	2560	86	324.89
10	2616	87	313.78
10	2670	88	302.67
10	2729	89	291.56
10	2783	90	280.45
10	2837	91	269.34
10	2906	92	258.23
10	2995	93	247.12
10	3084	94	236.01
10	3173	95	224.9
10	3262	96	213.79
10	3351	97	202.68
10	3440	98	191.57
10	3529	99	180.46
10	3620	100	169.35
10	3711	101	158.24
10	3802	102	147.13
10	3893	103	136.02
10	3984	104	124.91
10	4075	105	113.8
10	4166	106	102.69
10	4257	107	91.58
10	4345	108	80.47
10	4430	109	69.36
10	4516	110	58.25
10	4608	111	47.14
10	4693	112	36.03
10	4778	113	24.933547981559
10	4863	114	32.17
10	4953	115	44.88
10	5041	116	58.39
10	5132	117	72.7
10	5221	118	87.81
10	5310	119	103.72
10	5399	120	120.43
10	5488	121	137.94
10	5595	122	156.25
10	5737	123	175.36
10	5869	124	194.8
10	6001	125	214.24
10	6134	126	233.68
10	6266	127	253.12
10	6398	128	272.56
10	6530	129	292
10	6664	130	311.44
10	6798	131	330.88
10	6932	132	350.32
10	7066	133	369.76
10	7200	134	389.2
10	7331	135	408.64
10	7459	136	428.08
10	7587	137	447.52
10	7711	138	465.8836
10	7794	139	482.1472
10	7846	140	497.0949
vector 25 RSUScenario.node[5].veinsmobility posx ETV
vector 26 RSUScenario.node[5].veinsmobility posy ETV
vector 27 RSUScenario.node[5].veinsmobility speed ETV
vector 28 RSUScenario.node[5].veinsmobility acceleration ETV
vector 29 RSUScenario.node[5].veinsmobility co2emission ETV
19	2995	93	1.4960423838925
19	3084	94	1.6897730456371
19	3173	95	1.8843550711398
19	3262	96	2.08007224832
19	3351	97	2.277208365097
19	3440	98	2.4760472093901
19	3529	99	2.6768725691187
19	3620	100	2.8799682322022
19	3711	101	3.08561798656
19	3802	102	3.2941056201114
19	3893	103	3.5057149207757
19	3984	104	3.7207296764723
19	4075	105	3.6736604878015
19	4166	106	1.7726283878015
19	4257	107	1.7726283878015
19	4345	108	1.7726283878015
19	4430	109	1.7726283878015
19	4516	110	1.7726283878015
19	4608	111	1.7726283878015
19	4693	112	1.7726283878015
19	4778	113	1.7726283878015
19	4863	114	1.7726283878015
19	4953	115	1.7726283878015
19	5041	116	1.7726283878015
19	5132	117	1.7726283878015
19	5221	118	1.7726283878015
19	5310	119	1.7726283878015
19	5399	120	1.7726283878015
19	5488	121	1.7726283878015
19	5595	122	1.7726283878015
19	5737	123	1.7726283878015
19	5869	124	1.7726283878015
19	6001	125	1.7726283878015
19	6134	126	1.7726283878015
19	6266	127	1.7726283878015
19	6398	128	1.7726283878015
19	6530	129	1.7726283878015
19	6664	130	1.7726283878015
19	6798	131	1.7726283878015
19	6932	132	1.7726283878015
19	7066	133	1.7726283878015
19	7200	134	1.7726283878015
19	7331	135	1.7726283878015
19	7459	136	1.7726283878015
19	7587	137	1.7726283878015
19	7711	138	1.7726283878015
19	7794	139	1.7726283878015
19	7846	140	1.7726283878015
19	7898	141	1.7726283878015
19	7927	142	1.7726283878015
19	7956	143	4.1368522841228
19	7989	144	4.3632930730936
19	8018	145	4.5942425426332
19	8047	146	4.8299844806611
19	8076	147	5.0708026750965
19	8103	148	5.3169809138587
19	8130	149	5.5688029848673
19	8157	150	5.8265526760415
19	8184	151	6.0905137753007
19	8228	152	6.3609700705642
19	8282	153	4.2725232104367
19	8336	154	2.7264600104367
19	8390	155	2.7264600104367
19	8444	156	2.7264600104367
19	8498	157	2.7264600104367
19	8552	158	2.7264600104367
19	8606	159	2.7264600104367
19	8662	160	2.7264600104367
19	8718	161	2.7264600104367
19	8774	162	2.7264600104367
19	8830	163	2.7264600104367
19	8886	164	2.7264600104367
19	8942	165	2.7264600104367
19	8998	166	2.7264600104367
19	9054	167	2.7264600104367
19	9106	168	2.7264600104367
19	9158	169	2.7264600104367
18	2995	93	0.8
18	3084	94	0.8
18	3173	95	0.8
18	3262	96	0.8
18	3351	97	0.8
18	3440	98	0.8
18	3529	99	0.8
18	3620	100	0.8
18	3711	101	0.8
18	3802	102	0.8
18	3893	103	0.8
18	3984	104	0.8
18	4075	105	0.71
18	4166	106	0
18	4257	107	0
18	4345	108	0
18	4430	109	0
18	4516	110	0
18	4608	111	0
18	4693	112	0
18	4778	113	0
18	4863	114	0
18	4953	115	0
18	5041	116	0
18	5132	117	0
18	5221	118	0
18	5310	119	0
18	5399	120	0
18	5488	121	0
18	5595	122	0
18	5737	123	0
18	5869	124	0
18	6001	125	0
18	6134	126	0
18	6266	127	0
18	6398	128	0
18	6530	129	0
18	6664	130	0
18	6798	131	0
18	6932	132	0
18	7066	133	0
18	7200	134	0
18	7331	135	0
18	7459	136	0
18	7587	137	0
18	7711	138	0
18	7794	139	0
18	7846	140	0
18	7898	141	0
18	7927	142	0
18	7956	143	0.8
18	7989	144	0.8
18	8018	145	0.8
18	8047	146	0.8
18	8076	147	0.8
18	8103	148	0.8
18	8130	149	0.8
18	8157	150	0.8
18	8184	151	0.8
18	8228	152	0.8
18	8282	153	0.32999999999999
18	8336	154	0
18	8390	155	0
18	8444	156	0
18	8498	157	0
18	8552	158	0
18	8606	159	0
18	8662	160	0
18	8718	161	0
18	8774	162	0
18	8830	163	0
18	8886	164	0
18	8942	165	0
18	8998	166	0
18	9054	167	0
18	9106	168	0
18	9158	169	0
17	2906	92	0.8
17	2995	93	1.6
17	3084	94	2.4
17	3173	95	3.2
17	3262	96	4
17	3351	97	4.8
17	3440	98	5.6
17	3529	99	6.4
17	3620	100	7.2
17	3711	101	8
17	3802	102	8.8
17	3893	103	9.6
17	3984	104	10.4
17	4075	105	11.11
17	4166	106	11.11
17	4257	107	11.11
17	4345	108	11.11
17	4430	109	11.11
17	4516	110	11.11
17	4608	111	11.11
17	4693	112	11.11
17	4778	113	11.11
17	4863	114	11.11
17	4953	115	11.11
17	5041	116	11.11
17	5132	117	11.11
17	5221	118	11.11
17	5310	119	11.11
17	5399	120	11.11
17	5488	121	11.11
17	5595	122	11.11
17	5737	123	11.11
17	5869	124	11.11
17	6001	125	11.11
17	6134	126	11.11
17	6266	127	11.11
17	6398	128	11.11
17	6530	129	11.11
17	6664	130	11.11
17	6798	131	11.11
17	6932	132	11.11
17	7066	133	11.11
17	7200	134	11.11
17	7331	135	11.11
17	7459	136	11.11
17	7587	137	11.11
17	7711	138	11.11
17	7794	139	11.11
17	7846	140	11.11
17	7898	141	11.11
17	7927	142	11.11
17	7956	143	11.91
17	7989	144	12.71
17	8018	145	13.51
17	8047	146	14.31
17	8076	147	15.11
17	8103	148	15.91
17	8130	149	16.71
17	8157	150	17.51
17	8184	151	18.31
17	8228	152	19.11
17	8282	153	19.44
17	8336	154	19.44
17	8390	155	19.44
17	8444	156	19.44
17	8498	157	19.44
17	8552	158	19.44
17	8606	159	19.44
17	8662	160	19.44
17	8718	161	19.44
17	8774	162	19.44
17	8830	163	19.44
17	8886	164	19.44
17	8942	165	19.44
17	8998	166	19.44
17	9054	167	19.44
17	9106	168	19.44
17	9158	169	19.44
16	2837	91	23.35
16	2906	92	23.35
16	2995	93	23.35
16	3084	94	23.35
16	3173	95	23.35
16	3262	96	23.35
16	3351	97	23.35
16	3440	98	23.35
16	3529	99	23.35
16	3620	100	23.35
16	3711	101	23.35
16	3802	102	23.35
16	3893	103	23.35
16	3984	104	23.35
16	4075	105	23.35
16	4166	106	23.35
16	4257	107	23.35
16	4345	108	23.35
16	4430	109	23.35
16	4516	110	23.35
16	4608	111	23.35
16	4693	112	23.35
16	4778	113	23.35
16	4863	114	23.35
16	4953	115	23.35
16	5041	116	23.35
16	5132	117	23.35
16	5221	118	23.35
16	5310	119	23.35
16	5399	120	23.35
16	5488	121	23.35
16	5595	122	23.35
16	5737	123	23.35
16	5869	124	23.35
16	6001	125	23.35
16	6134	126	23.35
16	6266	127	23.35
16	6398	128	23.35
16	6530	129	23.35
16	6664	130	23.35
16	6798	131	23.35
16	6932	132	23.35
16	7066	133	23.35
16	7200	134	23.35
16	7331	135	23.35
16	7459	136	23.35
16	7587	137	23.35
16	7711	138	23.35
16	7794	139	23.35
16	7846	140	23.35
16	7898	141	23.35
16	7927	142	23.35
16	7956	143	23.394479980085
16	7989	144	26.65
16	8018	145	26.65
16	8047	146	26.65
16	8076	147	26.65
16	8103	148	26.65
16	8130	149	26.65
16	8157	150	26.65
16	8184	151	26.65
16	8228	152	26.65
16	8282	153	26.65
16	8336	154	26.65
16	8390	155	26.65
16	8444	156	26.65
16	8498	157	26.65
16	8552	158	26.65
16	8606	159	26.65
16	8662	160	26.65
16	8718	161	26.65
16	8774	162	26.65
16	8830	163	26.65
16	8886	164	26.65
16	8942	165	26.65
16	8998	166	26.65
16	9054	167	26.65
16	9106	168	26.65
16	9158	169	26.65
15	2837	91	519.9
15	2906	92	519.9
15	2995	93	519.1
15	3084	94	517.5
15	3173	95	515.1
15	3262	96	511.9
15	3351	97	507.9
15	3440	98	503.1
15	3529	99	497.5
15	3620	100	491.1
15	3711	101	483.9
15	3802	102	475.9
15	3893	103	467.1
15	3984	104	457.5
15	4075	105	447.1
15	4166	106	435.99
15	4257	107	424.88
15	4345	108	413.77
15	4430	109	402.66
15	4516	110	391.55
15	4608	111	380.44
15	4693	112	369.33
15	4778	113	358.22
15	4863	114	347.11
15	4953	115	336
15	5041	116	324.89
15	5132	117	313.78
15	5221	118	302.67
15	5310	119	291.56
15	5399	120	280.45
15	5488	121	269.34
15	5595	122	258.23
15	5737	123	247.12
15	5869	124	236.01
15	6001	125	224.9
15	6134	126	213.79
15	6266	127	202.68
15	6398	128	191.57
15	6530	129	180.46
15	6664	130	169.35
15	6798	131	158.24
15	6932	132	147.13
15	7066	133	136.02
15	7200	134	124.91
15	7331	135	113.8
15	7459	136	102.69
15	7587	137	91.58
15	7711	138	80.47
15	7794	139	69.36
15	7846	140	58.25
15	7898	141	47.14
15	7927	142	36.03
15	7956	143	24.933547981559
15	7989	144	32.17
15	8018	145	44.88
15	8047	146	58.39
15	8076	147	72.7
15	8103	148	87.81
15	8130	149	103.72
15	8157	150	120.43
15	8184	151	137.94
15	8228	152	156.25
15	8282	153	175.36
15	8336	154	194.8
15	8390	155	214.24
15	8444	156	233.68
15	8498	157	253.12
15	8552	158	272.56
15	8606	159	292
15	8662	160	311.44
15	8718	161	330.88
15	8774	162	350.32
15	8830	163	369.76
15	8886	164	389.2
15	8942	165	408.64
15	8998	166	428.08
15	9054	167	447.52
15	9106	168	466.96
15	9158	169	486.4
vector 30 RSUScenario.node[6].veinsmobility posx ETV
vector 31 RSUScenario.node[6].veinsmobility posy ETV
vector 32 RSUScenario.node[6].veinsmobility speed ETV
vector 33 RSUScenario.node[6].veinsmobility acceleration ETV
vector 34 RSUScenario.node[6].veinsmobility co2emission ETV
24	5737	123	1.4960423838925
24	5869	124	1.6897730456371
24	6001	125	1.8843550711398
24	6134	126	2.08007224832
24	6266	127	2.277208365097
24	6398	128	2.4760472093901
24	6530	129	2.6768725691187
24	6664	130	2.8799682322022
24	6798	131	3.08561798656
24	6932	132	3.2941056201114
24	7066	133	3.5057149207757
24	7200	134	3.7207296764723
24	7331	135	3.6736604878015
24	7459	136	1.7726283878015
24	7587	137	1.7726283878015
24	7711	138	1.7726283878015
24	7794	139	1.7726283878015
24	7846	140	1.7726283878015
24	7898	141	1.7726283878015
24	7927	142	1.7726283878015
24	7956	143	1.7726283878015
24	7989	144	1.7726283878015
24	8018	145	1.7726283878015
24	8047	146	1.7726283878015
24	8076	147	1.7726283878015
24	8103	148	1.7726283878015
24	8130	149	1.7726283878015
24	8157	150	1.7726283878015
24	8184	151	1.7726283878015
24	8228	152	1.7726283878015
24	8282	153	1.7726283878015
24	8336	154	1.7726283878015
24	8390	155	1.7726283878015
24	8444	156	1.7726283878015
24	8498	157	1.7726283878015
24	8552	158	1.7726283878015
24	8606	159	1.7726283878015
24	8662	160	1.7726283878015
24	8718	161	1.7726283878015
24	8774	162	1.7726283878015
24	8830	163	1.7726283878015
24	8886	164	1.7726283878015
24	8942	165	1.7726283878015
24	8998	166	1.7726283878015
24	9054	167	1.7726283878015
24	9106	168	1.7726283878015
24	9158	169	1.7726283878015
24	9210	170	1.7726283878015
24	9239	171	1.7726283878015
24	9268	172	1.7726283878015
24	9297	173	4.1368522841228
24	9326	174	4.3632930730936
24	9355	175	4.5942425426332
24	9384	176	4.8299844806611
24	9413	177	5.0708026750965
24	9440	178	5.3169809138587
24	9467	179	5.5688029848673
24	9494	180	5.8265526760415
24	9521	181	6.0905137753007
24	9558	182	6.3609700705642
24	9612	183	4.2725232104367
24	9666	184	2.7264600104367
24	9720	185	2.7264600104367
24	9779	186	2.7264600104367
24	9833	187	2.7264600104367
24	9887	188	2.7264600104367
24	9941	189	2.7264600104367
24	9997	190	2.7264600104367
24	10053	191	2.7264600104367
24	10109	192	2.7264600104367
24	10165	193	2.7264600104367
24	10227	194	2.7264600104367
24	10283	195	2.7264600104367
24	10339	196	2.7264600104367
24	10395	197	2.7264600104367
24	10447	198	2.7264600104367
24	10504	199	2.7264600104367
23	5737	123	0.8
23	5869	124	0.8
23	6001	125	0.8
23	6134	126	0.8
23	6266	127	0.8
23	6398	128	0.8
23	6530	129	0.8
23	6664	130	0.8
23	6798	131	0.8
23	6932	132	0.8
23	7066	133	0.8
23	7200	134	0.8
23	7331	135	0.71
23	7459	136	0
23	7587	137	0
23	7711	138	0
23	7794	139	0
23	7846	140	0
23	7898	141	0
23	7927	142	0
23	7956	143	0
23	7989	144	0
23	8018	145	0
23	8047	146	0
23	8076	147	0
23	8103	148	0
23	8130	149	0
23	8157	150	0
23	8184	151	0
23	8228	152	0
23	8282	153	0
23	8336	154	0
23	8390	155	0
23	8444	156	0
23	8498	157	0
23	8552	158	0
23	8606	159	0
23	8662	160	0
23	8718	161	0
23	8774	162	0
23	8830	163	0
23	8886	164	0
23	8942	165	0
23	8998	166	0
23	9054	167	0
23	9106	168	0
23	9158	169	0
23	9210	170	0
23	9239	171	0
23	9268	172	0
23	9297	173	0.8
23	9326	174	0.8
23	9355	175	0.8
23	9384	176	0.8
23	9413	177	0.8
23	9440	178	0.8
23	9467	179	0.8
23	9494	180	0.8
23	9521	181	0.8
23	9558	182	0.8
23	9612	183	0.32999999999999
23	9666	184	0
23	9720	185	0
23	9779	186	0
23	9833	187	0
23	9887	188	0
23	9941	189	0
23	9997	190	0
23	10053	191	0
23	10109	192	0
23	10165	193	0
23	10227	194	0
23	10283	195	0
23	10339	196	0
23	10395	197	0
23	10447	198	0
23	10504	199	0
22	5595	122	0.8
22	5737	123	1.6
22	5869	124	2.4
22	6001	125	3.2
22	6134	126	4
22	6266	127	4.8
22	6398	128	5.6
22	6530	129	6.4
22	6664	130	7.2
22	6798	131	8
22	6932	132	8.8
22	7066	133	9.6
22	7200	134	10.4
22	7331	135	11.11
22	7459	136	11.11
22	7587	137	11.11
22	7711	138	11.11
22	7794	139	11.11
22	7846	140	11.11
22	7898	141	11.11
22	7927	142	11.11
22	7956	143	11.11
22	7989	144	11.11
22	8018	145	11.11
22	8047	146	11.11
22	8076	147	11.11
22	8103	148	11.11
22	8130	149	11.11
22	8157	150	11.11
22	8184	151	11.11
22	8228	152	11.11
22	8282	153	11.11
22	8336	154	11.11
22	8390	155	11.11
22	8444	156	11.11
22	8498	157	11.11
22	8552	158	11.11
22	8606	159	11.11
22	8662	160	11.11
22	8718	161	11.11
22	8774	162	11.11
22	8830	163	11.11
22	8886	164	11.11
22	8942	165	11.11
22	8998	166	11.11
22	9054	167	11.11
22	9106	168	11.11
22	9158	169	11.11
22	9210	170	11.11
22	9239	171	11.11
22	9268	172	11.11
22	9297	173	11.91
22	9326	174	12.71
22	9355	175	13.51
22	9384	176	14.31
22	9413	177	15.11
22	9440	178	15.91
22	9467	179	16.71
22	9494	180	17.51
22	9521	181	18.31
22	9558	182	19.11
22	9612	183	19.44
22	9666	184	19.44
22	9720	185	19.44
22	9779	186	19.44
22	9833	187	19.44
22	9887	188	19.44
22	9941	189	19.44
22	9997	190	19.44
22	10053	191	19.44
22	10109	192	19.44
22	10165	193	19.44
22	10227	194	19.44
22	10283	195	19.44
22	10339	196	19.44
22	10395	197	19.44
22	10447	198	19.44
22	10504	199	19.44
21	5488	121	23.35
21	5595	122	23.35
21	5737	123	23.35
21	5869	124	23.35
21	6001	125	23.35
21	6134	126	23.35
21	6266	127	23.35
21	6398	128	23.35
21	6530	129	23.35
21	6664	130	23.35
21	6798	131	23.35
21	6932	132	23.35
21	7066	133	23.35
21	7200	134	23.35
21	7331	135	23.35
21	7459	136	23.35
21	7587	137	23.35
21	7711	138	23.35
21	7794	139	23.35
21	7846	140	23.35
21	7898	141	23.35
21	7927	142	23.35
21	7956	143	23.35
21	7989	144	23.35
21	8018	145	23.35
21	8047	146	23.35
21	8076	147	23.35
21	8103	148	23.35
21	8130	149	23.35
21	8157	150	23.35
21	8184	151	23.35
21	8228	152	23.35
21	8282	153	23.35
21	8336	154	23.35
21	8390	155	23.35
21	8444	156	23.35
21	8498	157	23.35
21	8552	158	23.35
21	8606	159	23.35
21	8662	160	23.35
21	8718	161	23.35
21	8774	162	23.35
21	8830	163	23.35
21	8886	164	23.35
21	8942	165	23.35
21	8998	166	23.35
21	9054	167	23.35
21	9106	168	23.35
21	9158	169	23.35
21	9210	170	23.35
21	9239	171	23.35
21	9268	172	23.35
21	9297	173	23.394479980085
21	9326	174	26.65
21	9355	175	26.65
21	9384	176	26.65
21	9413	177	26.65
21	9440	178	26.65
21	9467	179	26.65
21	9494	180	26.65
21	9521	181	26.65
21	9558	182	26.65
21	9612	183	26.65
21	9666	184	26.65
21	9720	185	26.65
21	9779	186	26.65
21	9833	187	26.65
21	9887	188	26.65
21	9941	189	26.65
21	9997	190	26.65
21	10053	191	26.65
21	10109	192	26.65
21	10165	193	26.65
21	10227	194	26.65
21	10283	195	26.65
21	10339	196	26.65
21	10395	197	26.65
21	10447	198	26.65
21	10504	199	26.65
20	5488	121	519.9
20	5595	122	519.9
20	5737	123	519.1
20	5869	124	517.5
20	6001	125	515.1
20	6134	126	511.9
20	6266	127	507.9
20	6398	128	503.1
20	6530	129	497.5
20	6664	130	491.1
20	6798	131	483.9
20	6932	132	475.9
20	7066	133	467.1
20	7200	134	457.5
20	7331	135	447.1
20	7459	136	435.99
20	7587	137	424.88
20	7711	138	413.77
20	7794	139	402.66
20	7846	140	391.55
20	7898	141	380.44
20	7927	142	369.33
20	7956	143	358.22
20	7989	144	347.11
20	8018	145	336
20	8047	146	324.89
20	8076	147	313.78
20	8103	148	302.67
20	8130	149	291.56
20	8157	150	280.45
20	8184	151	269.34
20	8228	152	258.23
20	8282	153	247.12
20	8336	154	236.01
20	8390	155	224.9
20	8444	156	213.79
20	8498	157	202.68
20	8552	158	191.57
20	8606	159	180.46
20	8662	160	169.35
20	8718	161	158.24
20	8774	162	147.13
20	8830	163	136.02
20	8886	164	124.91
20	8942	165	113.8
20	8998	166	102.69
20	9054	167	91.58
20	9106	168	80.47
20	9158	169	69.36
20	9210	170	58.25
20	9239	171	47.14
20	9268	172	36.03
20	9297	173	24.933547981559
20	9326	174	32.17
20	9355	175	44.88
20	9384	176	58.39
20	9413	177	72.7
20	9440	178	87.81
20	9467	179	103.72
20	9494	180	120.43
20	9521	181	137.94
20	9558	182	156.25
20	9612	183	175.36
20	9666	184	194.8
20	9720	185	214.24
20	9779	186	233.68
20	9833	187	253.12
20	9887	188	272.56
20	9941	189	292
20	9997	190	311.44
20	10053	191	330.88
20	10109	192	350.32
20	10165	193	369.76
20	10227	194	389.2
20	10283	195	408.64
20	10339	196	428.08
20	10395	197	447.52
20	10447	198	466.96
20	10504	199	486.4
vector 35 RSUScenario.node[7].veinsmobility posx ETV
vector 36 RSUScenario.node[7].veinsmobility posy ETV
vector 37 RSUScenario.node[7].veinsmobility speed ETV
vector 38 RSUScenario.node[7].veinsmobility acceleration ETV
vector 39 RSUScenario.node[7].veinsmobility co2emission ETV
29	8282	153	1.4960423838925
29	8336	154	1.6897730456371
29	8390	155	1.8843550711398
29	8444	156	2.08007224832
29	8498	157	2.277208365097
29	8552	158	2.4760472093901
29	8606	159	2.6768725691187
29	8662	160	2.8799682322022
29	8718	161	3.08561798656
29	8774	162	3.2941056201114
29	8830	163	3.5057149207757
29	8886	164	3.7207296764723
29	8942	165	3.6736604878015
29	8998	166	1.7726283878015
29	9054	167	1.7726283878015
29	9106	168	1.7726283878015
29	9158	169	1.7726283878015
29	9210	170	1.7726283878015
29	9239	171	1.7726283878015
29	9268	172	1.7726283878015
29	9297	173	1.7726283878015
29	9326	174	1.7726283878015
29	9355	175	1.7726283878015
29	9384	176	1.7726283878015
29	9413	177	1.7726283878015
29	9440	178	1.7726283878015
29	9467	179	1.7726283878015
29	9494	180	1.7726283878015
29	9521	181	1.7726283878015
29	9558	182	1.7726283878015
29	9612	183	1.7726283878015
29	9666	184	1.7726283878015
29	9720	185	1.7726283878015
29	9779	186	1.7726283878015
29	9833	187	1.7726283878015
29	9887	188	1.7726283878015
29	9941	189	1.7726283878015
29	9997	190	1.7726283878015
29	10053	191	1.7726283878015
29	10109	192	1.7726283878015
29	10165	193	1.7726283878015
29	10227	194	1.7726283878015
29	10283	195	1.7726283878015
29	10339	196	1.7726283878015
29	10395	197	1.7726283878015
29	10447	198	1.7726283878015
29	10504	199	1.7726283878015
29	10556	200	1.7726283878015
29	10585	201	1.7726283878015
29	10614	202	1.7726283878015
29	10643	203	4.1368522841228
29	10672	204	4.3632930730936
29	10701	205	4.5942425426332
29	10730	206	4.8299844806611
29	10763	207	5.0708026750965
29	10790	208	5.3169809138587
29	10817	209	5.5688029848673
29	10844	210	5.8265526760415
29	10871	211	6.0905137753007
29	10908	212	6.3609700705642
29	10962	213	4.2725232104367
29	11016	214	2.7264600104367
29	11076	215	2.7264600104367
29	11130	216	2.7264600104367
29	11184	217	2.7264600104367
29	11238	218	2.7264600104367
29	11292	219	2.7264600104367
29	11353	220	2.7264600104367
29	11409	221	2.7264600104367
29	11465	222	2.7264600104367
29	11521	223	2.7264600104367
29	11577	224	2.7264600104367
29	11639	225	2.7264600104367
29	11695	226	2.7264600104367
29	11751	227	2.7264600104367
29	11803	228	2.7264600104367
29	11855	229	2.7264600104367
28	8282	153	0.8
28	8336	154	0.8
28	8390	155	0.8
28	8444	156	0.8
28	8498	157	0.8
28	8552	158	0.8
28	8606	159	0.8
28	8662	160	0.8
28	8718	161	0.8
28	8774	162	0.8
28	8830	163	0.8
28	8886	164	0.8
28	8942	165	0.71
28	8998	166	0
28	9054	167	0
28	9106	168	0
28	9158	169	0
28	9210	170	0
28	9239	171	0
28	9268	172	0
28	9297	173	0
28	9326	174	0
28	9355	175	0
28	9384	176	0
28	9413	177	0
28	9440	178	0
28	9467	179	0
28	9494	180	0
28	9521	181	0
28	9558	182	0
28	9612	183	0
28	9666	184	0
28	9720	185	0
28	9779	186	0
28	9833	187	0
28	9887	188	0
28	9941	189	0
28	9997	190	0
28	10053	191	0
28	10109	192	0
28	10165	193	0
28	10227	194	0
28	10283	195	0
28	10339	196	0
28	10395	197	0
28	10447	198	0
28	10504	199	0
28	10556	200	0
28	10585	201	0
28	10614	202	0
28	10643	203	0.8
28	10672	204	0.8
28	10701	205	0.8
28	10730	206	0.8
28	10763	207	0.8
28	10790	208	0.8
28	10817	209	0.8
28	10844	210	0.8
28	10871	211	0.8
28	10908	212	0.8
28	10962	213	0.32999999999999
28	11016	214	0
28	11076	215	0
28	11130	216	0
28	11184	217	0
28	11238	218	0
28	11292	219	0
28	11353	220	0
28	11409	221	0
28	11465	222	0
28	11521	223	0
28	11577	224	0
28	11639	225	0
28	11695	226	0
28	11751	227	0
28	11803	228	0
28	11855	229	0
27	8228	152	0.8
27	8282	153	1.6
27	8336	154	2.4
27	8390	155	3.2
27	8444	156	4
27	8498	157	4.8
27	8552	158	5.6
27	8606	159	6.4
27	8662	160	7.2
27	8718	161	8
27	8774	162	8.8
27	8830	163	9.6
27	8886	164	10.4
27	8942	165	11.11
27	8998	166	11.11
27	9054	167	11.11
27	9106	168	11.11
27	9158	169	11.11
27	9210	170	11.11
27	9239	171	11.11
27	9268	172	11.11
27	9297	173	11.11
27	9326	174	11.11
27	9355	175	11.11
27	9384	176	11.11
27	9413	177	11.11
27	9440	178	11.11
27	9467	179	11.11
27	9494	180	11.11
27	9521	181	11.11
27	9558	182	11.11
27	9612	183	11.11
27	9666	184	11.11
27	9720	185	11.11
27	9779	186	11.11
27	9833	187	11.11
27	9887	188	11.11
27	9941	189	11.11
27	9997	190	11.11
27	10053	191	11.11
27	10109	192	11.11
27	10165	193	11.11
27	10227	194	11.11
27	10283	195	11.11
27	10339	196	11.11
27	10395	197	11.11
27	10447	198	11.11
27	10504	199	11.11
27	10556	200	11.11
27	10585	201	11.11
27	10614	202	11.11
27	10643	203	11.91
27	10672	204	12.71
27	10701	205	13.51
27	10730	206	14.31
27	10763	207	15.11
27	10790	208	15.91
27	10817	209	16.71
27	10844	210	17.51
27	10871	211	18.31
27	10908	212	19.11
27	10962	213	19.44
27	11016	214	19.44
27	11076	215	19.44
27	11130	216	19.44
27	11184	217	19.44
27	11238	218	19.44
27	11292	219	19.44
27	11353	220	19.44
27	11409	221	19.44
27	11465	222	19.44
27	11521	223	19.44
27	11577	224	19.44
27	11639	225	19.44
27	11695	226	19.44
27	11751	227	19.44
27	11803	228	19.44
27	11855	229	19.44
26	8184	151	23.35
26	8228	152	23.35
26	8282	153	23.35
26	8336	154	23.35
26	8390	155	23.35
26	8444	156	23.35
26	8498	157	23.35
26	8552	158	23.35
26	8606	159	23.35
26	8662	160	23.35
26	8718	161	23.35
26	8774	162	23.35
26	8830	163	23.35
26	8886	164	23.35
26	8942	165	23.35
26	8998	166	23.35
26	9054	167	23.35
26	9106	168	23.35
26	9158	169	23.35
26	9210	170	23.35
26	9239	171	23.35
26	9268	172	23.35
26	9297	173	23.35
26	9326	174	23.35
26	9355	175	23.35
26	9384	176	23.35
26	9413	177	23.35
26	9440	178	23.35
26	9467	179	23.35
26	9494	180	23.35
26	9521	181	23.35
26	9558	182	23.35
26	9612	183	23.35
26	9666	184	23.35
26	9720	185	23.35
26	9779	186	23.35
26	9833	187	23.35
26	9887	188	23.35
26	9941	189	23.35
26	9997	190	23.35
26	10053	191	23.35
26	10109	192	23.35
26	10165	193	23.35
26	10227	194	23.35
26	10283	195	23.35
26	10339	196	23.35
26	10395	197	23.35
26	10447	198	23.35
26	10504	199	23.35
26	10556	200	23.35
26	10585	201	23.35
26	10614	202	23.35
26	10643	203	23.394479980085
26	10672	204	26.65
26	10701	205	26.65
26	10730	206	26.65
26	10763	207	26.65
26	10790	208	26.65
26	10817	209	26.65
26	10844	210	26.65
26	10871	211	26.65
26	10908	212	26.65
26	10962	213	26.65
26	11016	214	26.65
26	11076	215	26.65
26	11130	216	26.65
26	11184	217	26.65
26	11238	218	26.65
26	11292	219	26.65
26	11353	220	26.65
26	11409	221	26.65
26	11465	222	26.65
26	11521	223	26.65
26	11577	224	26.65
26	11639	225	26.65
26	11695	226	26.65
26	11751	227	26.65
26	11803	228	26.65
26	11855	229	26.65
25	8184	151	519.9
25	8228	152	519.9
25	8282	153	519.1
25	8336	154	517.5
25	8390	155	515.1
25	8444	156	511.9
25	8498	157	507.9
25	8552	158	503.1
25	8606	159	497.5
25	8662	160	491.1
25	8718	161	483.9
25	8774	162	475.9
25	8830	163	467.1
25	8886	164	457.5
25	8942	165	447.1
25	8998	166	435.99
25	9054	167	424.88
25	9106	168	413.77
25	9158	169	402.66
25	9210	170	391.55
25	9239	171	380.44
25	9268	172	369.33
25	9297	173	358.22
25	9326	174	347.11
25	9355	175	336
25	9384	176	324.89
25	9413	177	313.78
25	9440	178	302.67
25	9467	179	291.56
25	9494	180	280.45
25	9521	181	269.34
25	9558	182	258.23
25	9612	183	247.12
25	9666	184	236.01
25	9720	185	224.9
25	9779	186	213.79
25	9833	187	202.68
25	9887	188	191.57
25	9941	189	180.46
25	9997	190	169.35
25	10053	191	158.24
25	10109	192	147.13
25	10165	193	136.02
25	10227	194	124.91
25	10283	195	113.8
25	10339	196	102.69
25	10395	197	91.58
25	10447	198	80.47
25	10504	199	69.36
25	10556	200	58.25
25	10585	201	47.14
25	10614	202	36.03
25	10643	203	24.933547981559
25	10672	204	32.17
25	10701	205	44.88
25	10730	206	58.39
25	10763	207	72.7
25	10790	208	87.81
25	10817	209	103.72
25	10844	210	120.43
25	10871	211	137.94
25	10908	212	156.25
25	10962	213	175.36
25	11016	214	194.8
25	11076	215	214.24
25	11130	216	233.68
25	11184	217	253.12
25	11238	218	272.56
25	11292	219	292
25	11353	220	311.44
25	11409	221	330.88
25	11465	222	350.32
25	11521	223	369.76
25	11577	224	389.2
25	11639	225	408.64
25	11695	226	428.08
25	11751	227	447.52
25	11803	228	466.96
25	11855	229	486.4
vector 40 RSUScenario.node[8].veinsmobility posx ETV
vector 41 RSUScenario.node[8].veinsmobility posy ETV
vector 42 RSUScenario.node[8].veinsmobility speed ETV
vector 43 RSUScenario.node[8].veinsmobility acceleration ETV
vector 44 RSUScenario.node[8].veinsmobility co2emission ETV
34	9612	183	1.4960423838925
34	9666	184	1.6897730456371
34	9720	185	1.8843550711398
34	9779	186	2.08007224832
34	9833	187	2.277208365097
34	9887	188	2.4760472093901
34	9941	189	2.6768725691187
34	9997	190	2.8799682322022
34	10053	191	3.08561798656
34	10109	192	3.2941056201114
34	10165	193	3.5057149207757
34	10227	194	3.7207296764723
34	10283	195	3.6736604878015
34	10339	196	1.7726283878015
34	10395	197	1.7726283878015
34	10447	198	1.7726283878015
34	10504	199	1.7726283878015
34	10556	200	1.7726283878015
34	10585	201	1.7726283878015
34	10614	202	1.7726283878015
34	10643	203	1.7726283878015
34	10672	204	1.7726283878015
34	10701	205	1.7726283878015
34	10730	206	1.7726283878015
34	10763	207	1.7726283878015
34	10790	208	1.7726283878015
34	10817	209	1.7726283878015
34	10844	210	1.7726283878015
34	10871	211	1.7726283878015
34	10908	212	1.7726283878015
34	10962	213	1.7726283878015
34	11016	214	1.7726283878015
34	11076	215	1.7726283878015
34	11130	216	1.7726283878015
34	11184	217	1.7726283878015
34	11238	218	1.7726283878015
34	11292	219	1.7726283878015
34	11353	220	1.7726283878015
34	11409	221	1.7726283878015
34	11465	222	1.7726283878015
34	11521	223	1.7726283878015
34	11577	224	1.7726283878015
34	11639	225	1.7726283878015
34	11695	226	1.7726283878015
34	11751	227	1.7726283878015
34	11803	228	1.7726283878015
34	11855	229	1.7726283878015
34	11912	230	1.7726283878015
34	11941	231	1.7726283878015
34	11970	232	1.7726283878015
34	11999	233	4.1368522841228
34	12028	234	4.3632930730936
34	12057	235	4.5942425426332
34	12086	236	4.8299844806611
34	12115	237	5.0708026750965
34	12146	238	5.3169809138587
34	12173	239	5.5688029848673
34	12200	240	5.8265526760415
34	12227	241	6.0905137753007
34	12264	242	6.3609700705642
34	12318	243	4.2725232104367
34	12372	244	2.7264600104367
34	12426	245	2.7264600104367
34	12480	246	2.7264600104367
34	12534	247	2.7264600104367
34	12588	248	2.7264600104367
34	12642	249	2.7264600104367
34	12698	250	2.7264600104367
34	12754	251	2.7264600104367
34	12810	252	2.7264600104367
34	12866	253	2.7264600104367
34	12922	254	2.7264600104367
34	12978	255	2.7264600104367
34	13034	256	2.7264600104367
34	13090	257	2.7264600104367
34	13142	258	2.7264600104367
34	13194	259	2.7264600104367
33	9612	183	0.8
33	9666	184	0.8
33	9720	185	0.8
33	9779	186	0.8
33	9833	187	0.8
33	9887	188	0.8
33	9941	189	0.8
33	9997	190	0.8
33	10053	191	0.8
33	10109	192	0.8
33	10165	193	0.8
33	10227	194	0.8
33	10283	195	0.71
33	10339	196	0
33	10395	197	0
33	10447	198	0
33	10504	199	0
33	10556	200	0
33	10585	201	0
33	10614	202	0
33	10643	203	0
33	10672	204	0
33	10701	205	0
33	10730	206	0
33	10763	207	0
33	10790	208	0
33	10817	209	0
33	10844	210	0
33	10871	211	0
33	10908	212	0
33	10962	213	0
33	11016	214	0
33	11076	215	0
33	11130	216	0
33	11184	217	0
33	11238	218	0
33	11292	219	0
33	11353	220	0
33	11409	221	0
33	11465	222	0
33	11521	223	0
33	11577	224	0
33	11639	225	0
33	11695	226	0
33	11751	227	0
33	11803	228	0
33	11855	229	0
33	11912	230	0
33	11941	231	0
33	11970	232	0
33	11999	233	0.8
33	12028	234	0.8
33	12057	235	0.8
33	12086	236	0.8
33	12115	237	0.8
33	12146	238	0.8
33	12173	239	0.8
33	12200	240	0.8
33	12227	241	0.8
33	12264	242	0.8
33	12318	243	0.32999999999999
33	12372	244	0
33	12426	245	0
33	12480	246	0
33	12534	247	0
33	12588	248	0
33	12642	249	0
33	12698	250	0
33	12754	251	0
33	12810	252	0
33	12866	253	0
33	12922	254	0
33	12978	255	0
33	13034	256	0
33	13090	257	0
33	13142	258	0
33	13194	259	0
32	9558	182	0.8
32	9612	183	1.6
32	9666	184	2.4
32	9720	185	3.2
32	9779	186	4
32	9833	187	4.8
32	9887	188	5.6
32	9941	189	6.4
32	9997	190	7.2
32	10053	191	8
32	10109	192	8.8
32	10165	193	9.6
32	10227	194	10.4
32	10283	195	11.11
32	10339	196	11.11
32	10395	197	11.11
32	10447	198	11.11
32	10504	199	11.11
32	10556	200	11.11
32	10585	201	11.11
32	10614	202	11.11
32	10643	203	11.11
32	10672	204	11.11
32	10701	205	11.11
32	10730	206	11.11
32	10763	207	11.11
32	10790	208	11.11
32	10817	209	11.11
32	10844	210	11.11
32	10871	211	11.11
32	10908	212	11.11
32	10962	213	11.11
32	11016	214	11.11
32	11076	215	11.11
32	11130	216	11.11
32	11184	217	11.11
32	11238	218	11.11
32	11292	219	11.11
32	11353	220	11.11
32	11409	221	11.11
32	11465	222	11.11
32	11521	223	11.11
32	11577	224	11.11
32	11639	225	11.11
32	11695	226	11.11
32	11751	227	11.11
32	11803	228	11.11
32	11855	229	11.11
32	11912	230	11.11
32	11941	231	11.11
32	11970	232	11.11
32	11999	233	11.91
32	12028	234	12.71
32	12057	235	13.51
32	12086	236	14.31
32	12115	237	15.11
32	12146	238	15.91
32	12173	239	16.71
32	12200	240	17.51
32	12227	241	18.31
32	12264	242	19.11
32	12318	243	19.44
32	12372	244	19.44
32	12426	245	19.44
32	12480	246	19.44
32	12534	247	19.44
32	12588	248	19.44
32	12642	249	19.44
32	12698	250	19.44
32	12754	251	19.44
32	12810	252	19.44
32	12866	253	19.44
32	12922	254	19.44
32	12978	255	19.44
32	13034	256	19.44
32	13090	257	19.44
32	13142	258	19.44
32	13194	259	19.44
31	9521	181	23.35
31	9558	182	23.35
31	9612	183	23.35
31	9666	184	23.35
31	9720	185	23.35
31	9779	186	23.35
31	9833	187	23.35
31	9887	188	23.35
31	9941	189	23.35
31	9997	190	23.35
31	10053	191	23.35
31	10109	192	23.35
31	10165	193	23.35
31	10227	194	23.35
31	10283	195	23.35
31	10339	196	23.35
31	10395	197	23.35
31	10447	198	23.35
31	10504	199	23.35
31	10556	200	23.35
31	10585	201	23.35
31	10614	202	23.35
31	10643	203	23.35
31	10672	204	23.35
31	10701	205	23.35
31	10730	206	23.35
31	10763	207	23.35
31	10790	208	23.35
31	10817	209	23.35
31	10844	210	23.35
31	10871	211	23.35
31	10908	212	23.35
31	10962	213	23.35
31	11016	214	23.35
31	11076	215	23.35
31	11130	216	23.35
31	11184	217	23.35
31	11238	218	23.35
31	11292	219	23.35
31	11353	220	23.35
31	11409	221	23.35
31	11465	222	23.35
31	11521	223	23.35
31	11577	224	23.35
31	11639	225	23.35
31	11695	226	23.35
31	11751	227	23.35
31	11803	228	23.35
31	11855	229	23.35
31	11912	230	23.35
31	11941	231	23.35
31	11970	232	23.35
31	11999	233	23.394479980085
31	12028	234	26.65
31	12057	235	26.65
31	12086	236	26.65
31	12115	237	26.65
31	12146	238	26.65
31	12173	239	26.65
31	12200	240	26.65
31	12227	241	26.65
31	12264	242	26.65
31	12318	243	26.65
31	12372	244	26.65
31	12426	245	26.65
31	12480	246	26.65
31	12534	247	26.65
31	12588	248	26.65
31	12642	249	26.65
31	12698	250	26.65
31	12754	251	26.65
31	12810	252	26.65
31	12866	253	26.65
31	12922	254	26.65
31	12978	255	26.65
31	13034	256	26.65
31	13090	257	26.65
31	13142	258	26.65
31	13194	259	26.65
30	9521	181	519.9
30	9558	182	519.9
30	9612	183	519.1
30	9666	184	517.5
30	9720	185	515.1
30	9779	186	511.9
30	9833	187	507.9
30	9887	188	503.1
30	9941	189	497.5
30	9997	190	491.1
30	10053	191	483.9
30	10109	192	475.9
30	10165	193	467.1
30	10227	194	457.5
30	10283	195	447.1
30	10339	196	435.99
30	10395	197	424.88
30	10447	198	413.77
30	10504	199	402.66
30	10556	200	391.55
30	10585	201	380.44
30	10614	202	369.33
30	10643	203	358.22
30	10672	204	347.11
30	10701	205	336
30	10730	206	324.89
30	10763	207	313.78
30	10790	208	302.67
30	10817	209	291.56
30	10844	210	280.45
30	10871	211	269.34
30	10908	212	258.23
30	10962	213	247.12
30	11016	214	236.01
30	11076	215	224.9
30	11130	216	213.79
30	11184	217	202.68
30	11238	218	191.57
30	11292	219	180.46
30	11353	220	169.35
30	11409	221	158.24
30	11465	222	147.13
30	11521	223	136.02
30	11577	224	124.91
30	11639	225	113.8
30	11695	226	102.69
30	11751	227	91.58
30	11803	228	80.47
30	11855	229	69.36
30	11912	230	58.25
30	11941	231	47.14
30	11970	232	36.03
30	11999	233	24.933547981559
30	12028	234	32.17
30	12057	235	44.88
30	12086	236	58.39
30	12115	237	72.7
30	12146	238	87.81
30	12173	239	103.72
30	12200	240	120.43
30	12227	241	137.94
30	12264	242	156.25
30	12318	243	175.36
30	12372	244	194.8
30	12426	245	214.24
30	12480	246	233.68
30	12534	247	253.12
30	12588	248	272.56
30	12642	249	292
30	12698	250	311.44
30	12754	251	330.88
30	12810	252	350.32
30	12866	253	369.76
30	12922	254	389.2
30	12978	255	408.64
30	13034	256	428.08
30	13090	257	447.52
30	13142	258	466.96
30	13194	259	486.4
vector 45 RSUScenario.node[9].veinsmobility posx ETV
vector 46 RSUScenario.node[9].veinsmobility posy ETV
vector 47 RSUScenario.node[9].veinsmobility speed ETV
vector 48 RSUScenario.node[9].veinsmobility acceleration ETV
vector 49 RSUScenario.node[9].veinsmobility co2emission ETV
39	10962	213	1.4960423838925
39	11016	214	1.6897730456371
39	11076	215	1.8843550711398
39	11130	216	2.08007224832
39	11184	217	2.277208365097
39	11238	218	2.4760472093901
39	11292	219	2.6768725691187
39	11353	220	2.8799682322022
39	11409	221	3.08561798656
39	11465	222	3.2941056201114
39	11521	223	3.5057149207757
39	11577	224	3.7207296764723
39	11639	225	3.6736604878015
39	11695	226	1.7726283878015
39	11751	227	1.7726283878015
39	11803	228	1.7726283878015
39	11855	229	1.7726283878015
39	11912	230	1.7726283878015
39	11941	231	1.7726283878015
39	11970	232	1.7726283878015
39	11999	233	1.7726283878015
39	12028	234	1.7726283878015
39	12057	235	1.7726283878015
39	12086	236	1.7726283878015
39	12115	237	1.7726283878015
39	12146	238	1.7726283878015
39	12173	239	1.7726283878015
39	12200	240	1.7726283878015
39	12227	241	1.7726283878015
39	12264	242	1.7726283878015
39	12318	243	1.7726283878015
39	12372	244	1.7726283878015
39	12426	245	1.7726283878015
39	12480	246	1.7726283878015
39	12534	247	1.7726283878015
39	12588	248	1.7726283878015
39	12642	249	1.7726283878015
39	12698	250	1.7726283878015
39	12754	251	1.7726283878015
39	12810	252	1.7726283878015
39	12866	253	1.7726283878015
39	12922	254	1.7726283878015
39	12978	255	1.7726283878015
39	13034	256	1.7726283878015
39	13090	257	1.7726283878015
39	13142	258	1.7726283878015
39	13194	259	1.7726283878015
39	13246	260	1.7726283878015
39	13275	261	1.7726283878015
39	13304	262	1.7726283878015
39	13333	263	4.1368522841228
39	13362	264	4.3632930730936
39	13391	265	4.5942425426332
39	13420	266	4.8299844806611
39	13449	267	5.0708026750965
39	13476	268	5.3169809138587
39	13503	269	5.5688029848673
39	13530	270	5.8265526760415
39	13557	271	6.0905137753007
39	13594	272	6.3609700705642
39	13648	273	4.2725232104367
39	13702	274	2.7264600104367
39	13761	275	2.7264600104367
39	13815	276	2.7264600104367
39	13869	277	2.7264600104367
39	13923	278	2.7264600104367
39	13977	279	2.7264600104367
39	14033	280	2.7264600104367
39	14089	281	2.7264600104367
39	14145	282	2.7264600104367
39	14207	283	2.7264600104367
39	14263	284	2.7264600104367
39	14319	285	2.7264600104367
39	14375	286	2.7264600104367
39	14431	287	2.7264600104367
39	14488	288	2.7264600104367
39	14540	289	2.7264600104367
38	10962	213	0.8
38	11016	214	0.8
38	11076	215	0.8
38	11130	216	0.8
38	11184	217	0.8
38	11238	218	0.8
38	11292	219	0.8
38	11353	220	0.8
38	11409	221	0.8
38	11465	222	0.8
38	11521	223	0.8
38	11577	224	0.8
38	11639	225	0.71
38	11695	226	0
38	11751	227	0
38	11803	228	0
38	11855	229	0
38	11912	230	0
38	11941	231	0
38	11970	232	0
38	11999	233	0
38	12028	234	0
38	12057	235	0
38	12086	236	0
38	12115	237	0
38	12146	238	0
38	12173	239	0
38	12200	240	0
38	12227	241	0
38	12264	242	0
38	12318	243	0
38	12372	244	0
38	12426	245	0
38	12480	246	0
38	12534	247	0
38	12588	248	0
38	12642	249	0
38	12698	250	0
38	12754	251	0
38	12810	252	0
38	12866	253	0
38	12922	254	0
38	12978	255	0
38	13034	256	0
38	13090	257	0
38	13142	258	0
38	13194	259	0
38	13246	260	0
38	13275	261	0
38	13304	262	0
38	13333	263	0.8
38	13362	264	0.8
38	13391	265	0.8
38	13420	266	0.8
38	13449	267	0.8
38	13476	268	0.8
38	13503	269	0.8
38	13530	270	0.8
38	13557	271	0.8
38	13594	272	0.8
38	13648	273	0.32999999999999
38	13702	274	0
38	13761	275	0
38	13815	276	0
38	13869	277	0
38	13923	278	0
38	13977	279	0
38	14033	280	0
38	14089	281	0
38	14145	282	0
38	14207	283	0
38	14263	284	0
38	14319	285	0
38	14375	286	0
38	14431	287	0
38	14488	288	0
38	14540	289	0
37	10908	212	0.8
37	10962	213	1.6
37	11016	214	2.4
37	11076	215	3.2
37	11130	216	4
37	11184	217	4.8
37	11238	218	5.6
37	11292	219	6.4
37	11353	220	7.2
37	11409	221	8
37	11465	222	8.8
37	11521	223	9.6
37	11577	224	10.4
37	11639	225	11.11
37	11695	226	11.11
37	11751	227	11.11
37	11803	228	11.11
37	11855	229	11.11
37	11912	230	11.11
37	11941	231	11.11
37	11970	232	11.11
37	11999	233	11.11
37	12028	234	11.11
37	12057	235	11.11
37	12086	236	11.11
37	12115	237	11.11
37	12146	238	11.11
37	12173	239	11.11
37	12200	240	11.11
37	12227	241	11.11
37	12264	242	11.11
37	12318	243	11.11
37	12372	244	11.11
37	12426	245	11.11
37	12480	246	11.11
37	12534	247	11.11
37	12588	248	11.11
37	12642	249	11.11
37	12698	250	11.11
37	12754	251	11.11
37	12810	252	11.11
37	12866	253	11.11
37	12922	254	11.11
37	12978	255	11.11
37	13034	256	11.11
37	13090	257	11.11
37	13142	258	11.11
37	13194	259	11.11
37	13246	260	11.11
37	13275	261	11.11
37	13304	262	11.11
37	13333	263	11.91
37	13362	264	12.71
37	13391	265	13.51
37	13420	266	14.31
37	13449	267	15.11
37	13476	268	15.91
37	13503	269	16.71
37	13530	270	17.51
37	13557	271	18.31
37	13594	272	19.11
37	13648	273	19.44
37	13702	274	19.44
37	13761	275	19.44
37	13815	276	19.44
37	13869	277	19.44
37	13923	278	19.44
37	13977	279	19.44
37	14033	280	19.44
37	14089	281	19.44
37	14145	282	19.44
37	14207	283	19.44
37	14263	284	19.44
37	14319	285	19.44
37	14375	286	19.44
37	14431	287	19.44
37	14488	288	19.44
37	14540	289	19.44
36	10871	211	23.35
36	10908	212	23.35
36	10962	213	23.35
36	11016	214	23.35
36	11076	215	23.35
36	11130	216	23.35
36	11184	217	23.35
36	11238	218	23.35
36	11292	219	23.35
36	11353	220	23.35
36	11409	221	23.35
36	11465	222	23.35
36	11521	223	23.35
36	11577	224	23.35
36	11639	225	23.35
36	11695	226	23.35
36	11751	227	23.35
36	11803	228	23.35
36	11855	229	23.35
36	11912	230	23.35
36	11941	231	23.35
36	11970	232	23.35
36	11999	233	23.35
36	12028	234	23.35
36	12057	235	23.35
36	12086	236	23.35
36	12115	237	23.35
36	12146	238	23.35
36	12173	239	23.35
36	12200	240	23.35
36	12227	241	23.35
36	12264	242	23.35
36	12318	243	23.35
36	12372	244	23.35
36	12426	245	23.35
36	12480	246	23.35
36	12534	247	23.35
36	12588	248	23.35
36	12642	249	23.35
36	12698	250	23.35
36	12754	251	23.35
36	12810	252	23.35
36	12866	253	23.35
36	12922	254	23.35
36	12978	255	23.35
36	13034	256	23.35
36	13090	257	23.35
36	13142	258	23.35
36	13194	259	23.35
36	13246	260	23.35
36	13275	261	23.35
36	13304	262	23.35
36	13333	263	23.394479980085
36	13362	264	26.65
36	13391	265	26.65
36	13420	266	26.65
36	13449	267	26.65
36	13476	268	26.65
36	13503	269	26.65
36	13530	270	26.65
36	13557	271	26.65
36	13594	272	26.65
36	13648	273	26.65
36	13702	274	26.65
36	13761	275	26.65
36	13815	276	26.65
36	13869	277	26.65
36	13923	278	26.65
36	13977	279	26.65
36	14033	280	26.65
36	14089	281	26.65
36	14145	282	26.65
36	14207	283	26.65
36	14263	284	26.65
36	14319	285	26.65
36	14375	286	26.65
36	14431	287	26.65
36	14488	288	26.65
36	14540	289	26.65
35	10871	211	519.9
35	10908	212	519.9
35	10962	213	519.1
35	11016	214	517.5
35	11076	215	515.1
35	11130	216	511.9
35	11184	217	507.9
35	11238	218	503.1
35	11292	219	497.5
35	11353	220	491.1
35	11409	221	483.9
35	11465	222	475.9
35	11521	223	467.1
35	11577	224	457.5
35	11639	225	447.1
35	11695	226	435.99
35	11751	227	424.88
35	11803	228	413.77
35	11855	229	402.66
35	11912	230	391.55
35	11941	231	380.44
35	11970	232	369.33
35	11999	233	358.22
35	12028	234	347.11
35	12057	235	336
35	12086	236	324.89
35	12115	237	313.78
35	12146	238	302.67
35	12173	239	291.56
35	12200	240	280.45
35	12227	241	269.34
35	12264	242	258.23
35	12318	243	247.12
35	12372	244	236.01
35	12426	245	224.9
35	12480	246	213.79
35	12534	247	202.68
35	12588	248	191.57
35	12642	249	180.46
35	12698	250	169.35
35	12754	251	158.24
35	12810	252	147.13
35	12866	253	136.02
35	12922	254	124.91
35	12978	255	113.8
35	13034	256	102.69
35	13090	257	91.58
35	13142	258	80.47
35	13194	259	69.36
35	13246	260	58.25
35	13275	261	47.14
35	13304	262	36.03
35	13333	263	24.933547981559
35	13362	264	32.17
35	13391	265	44.88
35	13420	266	58.39
35	13449	267	72.7
35	13476	268	87.81
35	13503	269	103.72
35	13530	270	120.43
35	13557	271	137.94
35	13594	272	156.25
35	13648	273	175.36
35	13702	274	194.8
35	13761	275	214.24
35	13815	276	233.68
35	13869	277	253.12
35	13923	278	272.56
35	13977	279	292
35	14033	280	311.44
35	14089	281	330.88
35	14145	282	350.32
35	14207	283	369.76
35	14263	284	389.2
35	14319	285	408.64
35	14375	286	428.08
35	14431	287	447.52
35	14488	288	466.96
35	14540	289	486.4
vector 50 RSUScenario.node[10].veinsmobility posx ETV
vector 51 RSUScenario.node[10].veinsmobility posy ETV
vector 52 RSUScenario.node[10].veinsmobility speed ETV
vector 53 RSUScenario.node[10].veinsmobility acceleration ETV
vector 54 RSUScenario.node[10].veinsmobility co2emission ETV
44	12318	243	1.4960423838925
44	12372	244	1.6897730456371
44	12426	245	1.8843550711398
44	12480	246	2.08007224832
44	12534	247	2.277208365097
44	12588	248	2.4760472093901
44	12642	249	2.6768725691187
44	12698	250	2.8799682322022
44	12754	251	3.08561798656
44	12810	252	3.2941056201114
44	12866	253	3.5057149207757
44	12922	254	3.7207296764723
44	12978	255	3.6736604878015
44	13034	256	1.7726283878015
44	13090	257	1.7726283878015
44	13142	258	1.7726283878015
44	13194	259	1.7726283878015
44	13246	260	1.7726283878015
44	13275	261	1.7726283878015
44	13304	262	1.7726283878015
44	13333	263	1.7726283878015
44	13362	264	1.7726283878015
44	13391	265	1.7726283878015
44	13420	266	1.7726283878015
44	13449	267	1.7726283878015
44	13476	268	1.7726283878015
44	13503	269	1.7726283878015
44	13530	270	1.7726283878015
44	13557	271	1.7726283878015
44	13594	272	1.7726283878015
44	13648	273	1.7726283878015
44	13702	274	1.7726283878015
44	13761	275	1.7726283878015
44	13815	276	1.7726283878015
44	13869	277	1.7726283878015
44	13923	278	1.7726283878015
44	13977	279	1.7726283878015
44	14033	280	1.7726283878015
44	14089	281	1.7726283878015
44	14145	282	1.7726283878015
44	14207	283	1.7726283878015
44	14263	284	1.7726283878015
44	14319	285	1.7726283878015
44	14375	286	1.7726283878015
44	14431	287	1.7726283878015
44	14488	288	1.7726283878015
44	14540	289	1.7726283878015
44	14592	290	1.7726283878015
44	14621	291	1.7726283878015
44	14650	292	1.7726283878015
44	14679	293	4.1368522841228
44	14708	294	4.3632930730936
44	14737	295	4.5942425426332
44	14770	296	4.8299844806611
44	14799	297	5.0708026750965
44	14826	298	5.3169809138587
44	14853	299	5.5688029848673
44	14880	300	5.8265526760415
44	14907	301	6.0905137753007
44	14944	302	6.3609700705642
44	14998	303	4.2725232104367
44	15058	304	2.7264600104367
44	15112	305	2.7264600104367
44	15166	306	2.7264600104367
44	15220	307	2.7264600104367
44	15274	308	2.7264600104367
44	15333	309	2.7264600104367
44	15389	310	2.7264600104367
44	15445	311	2.7264600104367
44	15501	312	2.7264600104367
44	15557	313	2.7264600104367
44	15619	314	2.7264600104367
44	15675	315	2.7264600104367
44	15731	316	2.7264600104367
44	15787	317	2.7264600104367
44	15839	318	2.7264600104367
44	15891	319	2.7264600104367
43	12318	243	0.8
43	12372	244	0.8
43	12426	245	0.8
43	12480	246	0.8
43	12534	247	0.8
43	12588	248	0.8
43	12642	249	0.8
43	12698	250	0.8
43	12754	251	0.8
43	12810	252	0.8
43	12866	253	0.8
43	12922	254	0.8
43	12978	255	0.71
43	13034	256	0
43	13090	257	0
43	13142	258	0
43	13194	259	0
43	13246	260	0
43	13275	261	0
43	13304	262	0
43	13333	263	0
43	13362	264	0
43	13391	265	0
43	13420	266	0
43	13449	267	0
43	13476	268	0
43	13503	269	0
43	13530	270	0
43	13557	271	0
43	13594	272	0
43	13648	273	0
43	13702	274	0
43	13761	275	0
43	13815	276	0
43	13869	277	0
43	13923	278	0
43	13977	279	0
43	14033	280	0
43	14089	281	0
43	14145	282	0
43	14207	283	0
43	14263	284	0
43	14319	285	0
43	14375	286	0
43	14431	287	0
43	14488	288	0
43	14540	289	0
43	14592	290	0
43	14621	291	0
43	14650	292	0
43	14679	293	0.8
43	14708	294	0.8
43	14737	295	0.8
43	14770	296	0.8
43	14799	297	0.8
43	14826	298	0.8
43	14853	299	0.8
43	14880	300	0.8
43	14907	301	0.8
43	14944	302	0.8
43	14998	303	0.32999999999999
43	15058	304	0
43	15112	305	0
43	15166	306	0
43	15220	307	0
43	15274	308	0
43	15333	309	0
43	15389	310	0
43	15445	311	0
43	15501	312	0
43	15557	313	0
43	15619	314	0
43	15675	315	0
43	15731	316	0
43	15787	317	0
43	15839	318	0
43	15891	319	0
42	12264	242	0.8
42	12318	243	1.6
42	12372	244	2.4
42	12426	245	3.2
42	12480	246	4
42	12534	247	4.8
42	12588	248	5.6
42	12642	249	6.4
42	12698	250	7.2
42	12754	251	8
42	12810	252	8.8
42	12866	253	9.6
42	12922	254	10.4
42	12978	255	11.11
42	13034	256	11.11
42	13090	257	11.11
42	13142	258	11.11
42	13194	259	11.11
42	13246	260	11.11
42	13275	261	11.11
42	13304	262	11.11
42	13333	263	11.11
42	13362	264	11.11
42	13391	265	11.11
42	13420	266	11.11
42	13449	267	11.11
42	13476	268	11.11
42	13503	269	11.11
42	13530	270	11.11
42	13557	271	11.11
42	13594	272	11.11
42	13648	273	11.11
42	13702	274	11.11
42	13761	275	11.11
42	13815	276	11.11
42	13869	277	11.11
42	13923	278	11.11
42	13977	279	11.11
42	14033	280	11.11
42	14089	281	11.11
42	14145	282	11.11
42	14207	283	11.11
42	14263	284	11.11
42	14319	285	11.11
42	14375	286	11.11
42	14431	287	11.11
42	14488	288	11.11
42	14540	289	11.11
42	14592	290	11.11
42	14621	291	11.11
42	14650	292	11.11
42	14679	293	11.91
42	14708	294	12.71
42	14737	295	13.51
42	14770	296	14.31
42	14799	297	15.11
42	14826	298	15.91
42	14853	299	16.71
42	14880	300	17.51
42	14907	301	18.31
42	14944	302	19.11
42	14998	303	19.44
42	15058	304	19.44
42	15112	305	19.44
42	15166	306	19.44
42	15220	307	19.44
42	15274	308	19.44
42	15333	309	19.44
42	15389	310	19.44
42	15445	311	19.44
42	15501	312	19.44
42	15557	313	19.44
42	15619	314	19.44
42	15675	315	19.44
42	15731	316	19.44
42	15787	317	19.44
42	15839	318	19.44
42	15891	319	19.44
41	12227	241	23.35
41	12264	242	23.35
41	12318	243	23.35
41	12372	244	23.35
41	12426	245	23.35
41	12480	246	23.35
41	12534	247	23.35
41	12588	248	23.35
41	12642	249	23.35
41	12698	250	23.35
41	12754	251	23.35
41	12810	252	23.35
41	12866	253	23.35
41	12922	254	23.35
41	12978	255	23.35
41	13034	256	23.35
41	13090	257	23.35
41	13142	258	23.35
41	13194	259	23.35
41	13246	260	23.35
41	13275	261	23.35
41	13304	262	23.35
41	13333	263	23.35
41	13362	264	23.35
41	13391	265	23.35
41	13420	266	23.35
41	13449	267	23.35
41	13476	268	23.35
41	13503	269	23.35
41	13530	270	23.35
41	13557	271	23.35
41	13594	272	23.35
41	13648	273	23.35
41	13702	274	23.35
41	13761	275	23.35
41	13815	276	23.35
41	13869	277	23.35
41	13923	278	23.35
41	13977	279	23.35
41	14033	280	23.35
41	14089	281	23.35
41	14145	282	23.35
41	14207	283	23.35
41	14263	284	23.35
41	14319	285	23.35
41	14375	286	23.35
41	14431	287	23.35
41	14488	288	23.35
41	14540	289	23.35
41	14592	290	23.35
41	14621	291	23.35
41	14650	292	23.35
41	14679	293	23.394479980085
41	14708	294	26.65
41	14737	295	26.65
41	14770	296	26.65
41	14799	297	26.65
41	14826	298	26.65
41	14853	299	26.65
41	14880	300	26.65
41	14907	301	26.65
41	14944	302	26.65
41	14998	303	26.65
41	15058	304	26.65
41	15112	305	26.65
41	15166	306	26.65
41	15220	307	26.65
41	15274	308	26.65
41	15333	309	26.65
41	15389	310	26.65
41	15445	311	26.65
41	15501	312	26.65
41	15557	313	26.65
41	15619	314	26.65
41	15675	315	26.65
41	15731	316	26.65
41	15787	317	26.65
41	15839	318	26.65
41	15891	319	26.65
40	12227	241	519.9
40	12264	242	519.9
40	12318	243	519.1
40	12372	244	517.5
40	12426	245	515.1
40	12480	246	511.9
40	12534	247	507.9
40	12588	248	503.1
40	12642	249	497.5
40	12698	250	491.1
40	12754	251	483.9
40	12810	252	475.9
40	12866	253	467.1
40	12922	254	457.5
40	12978	255	447.1
40	13034	256	435.99
40	13090	257	424.88
40	13142	258	413.77
40	13194	259	402.66
40	13246	260	391.55
40	13275	261	380.44
40	13304	262	369.33
40	13333	263	358.22
40	13362	264	347.11
40	13391	265	336
40	13420	266	324.89
40	13449	267	313.78
40	13476	268	302.67
40	13503	269	291.56
40	13530	270	280.45
40	13557	271	269.34
40	13594	272	258.23
40	13648	273	247.12
40	13702	274	236.01
40	13761	275	224.9
40	13815	276	213.79
40	13869	277	202.68
40	13923	278	191.57
40	13977	279	180.46
40	14033	280	169.35
40	14089	281	158.24
40	14145	282	147.13
40	14207	283	136.02
40	14263	284	124.91
40	14319	285	113.8
40	14375	286	102.69
40	14431	287	91.58
40	14488	288	80.47
40	14540	289	69.36
40	14592	290	58.25
40	14621	291	47.14
40	14650	292	36.03
40	14679	293	24.933547981559
40	14708	294	32.17
40	14737	295	44.88
40	14770	296	58.39
40	14799	297	72.7
40	14826	298	87.81
40	14853	299	103.72
40	14880	300	120.43
40	14907	301	137.94
40	14944	302	156.25
40	14998	303	175.36
40	15058	304	194.8
40	15112	305	214.24
40	15166	306	233.68
40	15220	307	253.12
40	15274	308	272.56
40	15333	309	292
40	15389	310	311.44
40	15445	311	330.88
[...]
137	47148	887	19.44
137	47200	888	19.44
137	47252	889	19.44
136	43600	811	23.35
136	43637	812	23.35
136	43696	813	23.35
136	43750	814	23.35
136	43804	815	23.35
136	43858	816	23.35
136	43912	817	23.35
136	43966	818	23.35
136	44020	819	23.35
136	44076	820	23.35
136	44132	821	23.35
136	44188	822	23.35
136	44244	823	23.35
136	44300	824	23.35
136	44356	825	23.35
136	44412	826	23.35
136	44468	827	23.35
136	44520	828	23.35
136	44572	829	23.35
136	44624	830	23.35
136	44653	831	23.35
136	44682	832	23.35
136	44711	833	23.35
136	44740	834	23.35
136	44769	835	23.35
136	44798	836	23.35
136	44827	837	23.35
136	44854	838	23.35
136	44881	839	23.35
136	44908	840	23.35
136	44935	841	23.35
136	44972	842	23.35
136	45026	843	23.35
136	45080	844	23.35
136	45134	845	23.35
136	45188	846	23.35
136	45242	847	23.35
136	45296	848	23.35
136	45350	849	23.35
136	45411	850	23.35
136	45467	851	23.35
136	45523	852	23.35
136	45579	853	23.35
136	45635	854	23.35
136	45697	855	23.35
136	45753	856	23.35
136	45809	857	23.35
136	45861	858	23.35
136	45913	859	23.35
136	45970	860	23.35
136	45999	861	23.35
136	46028	862	23.35
136	46057	863	23.394479980085
136	46086	864	26.65
136	46115	865	26.65
136	46144	866	26.65
136	46173	867	26.65
136	46204	868	26.65
136	46231	869	26.65
136	46258	870	26.65
136	46285	871	26.65
136	46322	872	26.65
136	46376	873	26.65
136	46430	874	26.65
136	46484	875	26.65
136	46538	876	26.65
136	46592	877	26.65
136	46646	878	26.65
136	46700	879	26.65
136	46756	880	26.65
136	46812	881	26.65
136	46868	882	26.65
136	46924	883	26.65
136	46980	884	26.65
136	47036	885	26.65
136	47092	886	26.65
136	47148	887	26.65
136	47200	888	26.65
136	47252	889	26.65
135	43600	811	519.9
135	43637	812	519.9
135	43696	813	519.1
135	43750	814	517.5
135	43804	815	515.1
135	43858	816	511.9
135	43912	817	507.9
135	43966	818	503.1
135	44020	819	497.5
135	44076	820	491.1
135	44132	821	483.9
135	44188	822	475.9
135	44244	823	467.1
135	44300	824	457.5
135	44356	825	447.1
135	44412	826	435.99
135	44468	827	424.88
135	44520	828	413.77
135	44572	829	402.66
135	44624	830	391.55
135	44653	831	380.44
135	44682	832	369.33
135	44711	833	358.22
135	44740	834	347.11
135	44769	835	336
135	44798	836	324.89
135	44827	837	313.78
135	44854	838	302.67
135	44881	839	291.56
135	44908	840	280.45
135	44935	841	269.34
135	44972	842	258.23
135	45026	843	247.12
135	45080	844	236.01
135	45134	845	224.9
135	45188	846	213.79
135	45242	847	202.68
135	45296	848	191.57
135	45350	849	180.46
135	45411	850	169.35
135	45467	851	158.24
135	45523	852	147.13
135	45579	853	136.02
135	45635	854	124.91
135	45697	855	113.8
135	45753	856	102.69
135	45809	857	91.58
135	45861	858	80.47
135	45913	859	69.36
135	45970	860	58.25
135	45999	861	47.14
135	46028	862	36.03
135	46057	863	24.933547981559
135	46086	864	32.17
135	46115	865	44.88
135	46144	866	58.39
135	46173	867	72.7
135	46204	868	87.81
135	46231	869	103.72
135	46258	870	120.43
135	46285	871	137.94
135	46322	872	156.25
135	46376	873	175.36
135	46430	874	194.8
135	46484	875	214.24
135	46538	876	233.68
135	46592	877	253.12
135	46646	878	272.56
135	46700	879	292
135	46756	880	311.44
135	46812	881	330.88
135	46868	882	350.32
135	46924	883	369.76
135	46980	884	389.2
135	47036	885	408.64
135	47092	886	428.08
135	47148	887	447.52
135	47200	888	466.96
135	47252	889	486.4
144	45026	843	1.4960423838925
144	45080	844	1.6897730456371
144	45134	845	1.8843550711398
144	45188	846	2.08007224832
144	45242	847	2.277208365097
144	45296	848	2.4760472093901
144	45350	849	2.6768725691187
144	45411	850	2.8799682322022
144	45467	851	3.08561798656
144	45523	852	3.2941056201114
144	45579	853	3.5057149207757
144	45635	854	3.7207296764723
144	45697	855	3.6736604878015
144	45753	856	1.7726283878015
144	45809	857	1.7726283878015
144	45861	858	1.7726283878015
144	45913	859	1.7726283878015
144	45970	860	1.7726283878015
144	45999	861	1.7726283878015
144	46028	862	1.7726283878015
144	46057	863	1.7726283878015
144	46086	864	1.7726283878015
144	46115	865	1.7726283878015
144	46144	866	1.7726283878015
144	46173	867	1.7726283878015
144	46204	868	1.7726283878015
144	46231	869	1.7726283878015
144	46258	870	1.7726283878015
144	46285	871	1.7726283878015
144	46322	872	1.7726283878015
144	46376	873	1.7726283878015
144	46430	874	1.7726283878015
144	46484	875	1.7726283878015
144	46538	876	1.7726283878015
144	46592	877	1.7726283878015
144	46646	878	1.7726283878015
144	46700	879	1.7726283878015
144	46756	880	1.7726283878015
144	46812	881	1.7726283878015
144	46868	882	1.7726283878015
144	46924	883	1.7726283878015
144	46980	884	1.7726283878015
144	47036	885	1.7726283878015
144	47092	886	1.7726283878015
144	47148	887	1.7726283878015
144	47200	888	1.7726283878015
144	47252	889	1.7726283878015
144	47304	890	1.7726283878015
144	47333	891	1.7726283878015
144	47362	892	1.7726283878015
144	47391	893	4.1368522841228
144	47420	894	4.3632930730936
144	47449	895	4.5942425426332
144	47478	896	4.8299844806611
144	47507	897	5.0708026750965
144	47534	898	5.3169809138587
144	47561	899	5.5688029848673
144	47588	900	5.8265526760415
144	47615	901	6.0905137753007
144	47642	902	6.3609700705642
144	47669	903	4.2725232104367
144	47696	904	2.7264600104367
144	47723	905	2.7264600104367
144	47750	906	2.7264600104367
144	47777	907	2.7264600104367
144	47804	908	2.7264600104367
144	47831	909	2.7264600104367
144	47860	910	2.7264600104367
144	47889	911	2.7264600104367
144	47918	912	2.7264600104367
144	47947	913	2.7264600104367
144	47976	914	2.7264600104367
144	48005	915	2.7264600104367
144	48034	916	2.7264600104367
144	48063	917	2.7264600104367
144	48088	918	2.7264600104367
144	48113	919	2.7264600104367
143	45026	843	0.8
143	45080	844	0.8
143	45134	845	0.8
143	45188	846	0.8
143	45242	847	0.8
143	45296	848	0.8
143	45350	849	0.8
143	45411	850	0.8
143	45467	851	0.8
143	45523	852	0.8
143	45579	853	0.8
143	45635	854	0.8
143	45697	855	0.71
143	45753	856	0
143	45809	857	0
143	45861	858	0
143	45913	859	0
143	45970	860	0
143	45999	861	0
143	46028	862	0
143	46057	863	0
143	46086	864	0
143	46115	865	0
143	46144	866	0
143	46173	867	0
143	46204	868	0
143	46231	869	0
143	46258	870	0
143	46285	871	0
143	46322	872	0
143	46376	873	0
143	46430	874	0
143	46484	875	0
143	46538	876	0
143	46592	877	0
143	46646	878	0
143	46700	879	0
143	46756	880	0
143	46812	881	0
143	46868	882	0
143	46924	883	0
143	46980	884	0
143	47036	885	0
143	47092	886	0
143	47148	887	0
143	47200	888	0
143	47252	889	0
143	47304	890	0
143	47333	891	0
143	47362	892	0
143	47391	893	0.8
143	47420	894	0.8
143	47449	895	0.8
143	47478	896	0.8
143	47507	897	0.8
143	47534	898	0.8
143	47561	899	0.8
143	47588	900	0.8
143	47615	901	0.8
143	47642	902	0.8
143	47669	903	0.32999999999999
143	47696	904	0
143	47723	905	0
143	47750	906	0
143	47777	907	0
143	47804	908	0
143	47831	909	0
143	47860	910	0
143	47889	911	0
143	47918	912	0
143	47947	913	0
143	47976	914	0
143	48005	915	0
143	48034	916	0
143	48063	917	0
143	48088	918	0
143	48113	919	0
142	44972	842	0.8
142	45026	843	1.6
142	45080	844	2.4
142	45134	845	3.2
142	45188	846	4
142	45242	847	4.8
142	45296	848	5.6
142	45350	849	6.4
142	45411	850	7.2
142	45467	851	8
142	45523	852	8.8
142	45579	853	9.6
142	45635	854	10.4
142	45697	855	11.11
142	45753	856	11.11
142	45809	857	11.11
142	45861	858	11.11
142	45913	859	11.11
142	45970	860	11.11
142	45999	861	11.11
142	46028	862	11.11
142	46057	863	11.11
142	46086	864	11.11
142	46115	865	11.11
142	46144	866	11.11
142	46173	867	11.11
142	46204	868	11.11
142	46231	869	11.11
142	46258	870	11.11
142	46285	871	11.11
142	46322	872	11.11
142	46376	873	11.11
142	46430	874	11.11
142	46484	875	11.11
142	46538	876	11.11
142	46592	877	11.11
142	46646	878	11.11
142	46700	879	11.11
142	46756	880	11.11
142	46812	881	11.11
142	46868	882	11.11
142	46924	883	11.11
142	46980	884	11.11
142	47036	885	11.11
142	47092	886	11.11
142	47148	887	11.11
142	47200	888	11.11
142	47252	889	11.11
142	47304	890	11.11
142	47333	891	11.11
142	47362	892	11.11
142	47391	893	11.91
142	47420	894	12.71
142	47449	895	13.51
142	47478	896	14.31
142	47507	897	15.11
142	47534	898	15.91
142	47561	899	16.71
142	47588	900	17.51
142	47615	901	18.31
142	47642	902	19.11
142	47669	903	19.44
142	47696	904	19.44
142	47723	905	19.44
142	47750	906	19.44
142	47777	907	19.44
142	47804	908	19.44
142	47831	909	19.44
142	47860	910	19.44
142	47889	911	19.44
142	47918	912	19.44
142	47947	913	19.44
142	47976	914	19.44
142	48005	915	19.44
142	48034	916	19.44
142	48063	917	19.44
142	48088	918	19.44
142	48113	919	19.44
141	44935	841	23.35
141	44972	842	23.35
141	45026	843	23.35
141	45080	844	23.35
141	45134	845	23.35
141	45188	846	23.35
141	45242	847	23.35
141	45296	848	23.35
141	45350	849	23.35
141	45411	850	23.35
141	45467	851	23.35
141	45523	852	23.35
141	45579	853	23.35
141	45635	854	23.35
141	45697	855	23.35
141	45753	856	23.35
141	45809	857	23.35
141	45861	858	23.35
141	45913	859	23.35
141	45970	860	23.35
141	45999	861	23.35
141	46028	862	23.35
141	46057	863	23.35
141	46086	864	23.35
141	46115	865	23.35
141	46144	866	23.35
141	46173	867	23.35
141	46204	868	23.35
141	46231	869	23.35
141	46258	870	23.35
141	46285	871	23.35
141	46322	872	23.35
141	46376	873	23.35
141	46430	874	23.35
141	46484	875	23.35
141	46538	876	23.35
141	46592	877	23.35
141	46646	878	23.35
141	46700	879	23.35
141	46756	880	23.35
141	46812	881	23.35
141	46868	882	23.35
141	46924	883	23.35
141	46980	884	23.35
141	47036	885	23.35
141	47092	886	23.35
141	47148	887	23.35
141	47200	888	23.35
141	47252	889	23.35
141	47304	890	23.35
141	47333	891	23.35
141	47362	892	23.35
141	47391	893	23.394479980085
141	47420	894	26.65
141	47449	895	26.65
141	47478	896	26.65
141	47507	897	26.65
141	47534	898	26.65
141	47561	899	26.65
141	47588	900	26.65
141	47615	901	26.65
141	47642	902	26.65
141	47669	903	26.65
141	47696	904	26.65
141	47723	905	26.65
141	47750	906	26.65
141	47777	907	26.65
141	47804	908	26.65
141	47831	909	26.65
141	47860	910	26.65
141	47889	911	26.65
141	47918	912	26.65
141	47947	913	26.65
141	47976	914	26.65
141	48005	915	26.65
141	48034	916	26.65
141	48063	917	26.65
141	48088	918	26.65
141	48113	919	26.65
140	44935	841	519.9
140	44972	842	519.9
140	45026	843	519.1
140	45080	844	517.5
140	45134	845	515.1
140	45188	846	511.9
140	45242	847	507.9
140	45296	848	503.1
140	45350	849	497.5
140	45411	850	491.1
140	45467	851	483.9
140	45523	852	475.9
140	45579	853	467.1
140	45635	854	457.5
140	45697	855	447.1
140	45753	856	435.99
140	45809	857	424.88
140	45861	858	413.77
140	45913	859	402.66
140	45970	860	391.55
140	45999	861	380.44
140	46028	862	369.33
140	46057	863	358.22
140	46086	864	347.11
140	46115	865	336
140	46144	866	324.89
140	46173	867	313.78
140	46204	868	302.67
140	46231	869	291.56
140	46258	870	280.45
140	46285	871	269.34
140	46322	872	258.23
140	46376	873	247.12
140	46430	874	236.01
140	46484	875	224.9
140	46538	876	213.79
140	46592	877	202.68
140	46646	878	191.57
140	46700	879	180.46
140	46756	880	169.35
140	46812	881	158.24
140	46868	882	147.13
140	46924	883	136.02
140	46980	884	124.91
140	47036	885	113.8
140	47092	886	102.69
140	47148	887	91.58
140	47200	888	80.47
140	47252	889	69.36
140	47304	890	58.25
140	47333	891	47.14
140	47362	892	36.03
140	47391	893	24.933547981559
140	47420	894	32.17
140	47449	895	44.88
140	47478	896	58.39
140	47507	897	72.7
140	47534	898	87.81
140	47561	899	103.72
140	47588	900	120.43
140	47615	901	137.94
140	47642	902	156.25
140	47669	903	175.36
140	47696	904	194.8
140	47723	905	214.24
140	47750	906	233.68
140	47777	907	253.12
140	47804	908	272.56
140	47831	909	292
140	47860	910	311.44
140	47889	911	330.88
140	47918	912	350.32
140	47947	913	369.76
140	47976	914	389.2
140	48005	915	408.64
140	48034	916	428.08
140	48063	917	447.52
140	48088	918	466.96
140	48113	919	486.4
149	46376	873	1.4960423838925
149	46430	874	1.6897730456371
149	46484	875	1.8843550711398
149	46538	876	2.08007224832
149	46592	877	2.277208365097
149	46646	878	2.4760472093901
149	46700	879	2.6768725691187
149	46756	880	2.8799682322022
149	46812	881	3.08561798656
149	46868	882	3.2941056201114
149	46924	883	3.5057149207757
149	46980	884	3.7207296764723
149	47036	885	3.6736604878015
149	47092	886	1.7726283878015
149	47148	887	1.7726283878015
149	47200	888	1.7726283878015
149	47252	889	1.7726283878015
149	47304	890	1.7726283878015
149	47333	891	1.7726283878015
149	47362	892	1.7726283878015
149	47391	893	1.7726283878015
149	47420	894	1.7726283878015
149	47449	895	1.7726283878015
149	47478	896	1.7726283878015
149	47507	897	1.7726283878015
149	47534	898	1.7726283878015
149	47561	899	1.7726283878015
149	47588	900	1.7726283878015
149	47615	901	1.7726283878015
149	47642	902	1.7726283878015
149	47669	903	1.7726283878015
149	47696	904	1.7726283878015
149	47723	905	1.7726283878015
149	47750	906	1.7726283878015
149	47777	907	1.7726283878015
149	47804	908	1.7726283878015
149	47831	909	1.7726283878015
149	47860	910	1.7726283878015
149	47889	911	1.7726283878015
149	47918	912	1.7726283878015
149	47947	913	1.7726283878015
149	47976	914	1.7726283878015
149	48005	915	1.7726283878015
149	48034	916	1.7726283878015
149	48063	917	1.7726283878015
149	48088	918	1.7726283878015
149	48113	919	1.7726283878015
149	48138	920	1.7726283878015
149	48148	921	1.7726283878015
149	48158	922	1.7726283878015
149	48168	923	4.1368522841228
149	48178	924	4.3632930730936
149	48188	925	4.5942425426332
149	48198	926	4.8299844806611
149	48208	927	5.0708026750965
149	48218	928	5.3169809138587
149	48228	929	5.5688029848673
149	48238	930	5.8265526760415
149	48248	931	6.0905137753007
149	48258	932	6.3609700705642
149	48268	933	4.2725232104367
149	48278	934	2.7264600104367
149	48288	935	2.7264600104367
149	48298	936	2.7264600104367
149	48308	937	2.7264600104367
149	48318	938	2.7264600104367
149	48328	939	2.7264600104367
149	48340	940	2.7264600104367
149	48352	941	2.7264600104367
149	48364	942	2.7264600104367
149	48376	943	2.7264600104367
149	48388	944	2.7264600104367
149	48400	945	2.7264600104367
149	48412	946	2.7264600104367
149	48424	947	2.7264600104367
149	48436	948	2.7264600104367
149	48448	949	2.7264600104367
148	46376	873	0.8
148	46430	874	0.8
148	46484	875	0.8
148	46538	876	0.8
148	46592	877	0.8
148	46646	878	0.8
148	46700	879	0.8
148	46756	880	0.8
148	46812	881	0.8
148	46868	882	0.8
148	46924	883	0.8
148	46980	884	0.8
148	47036	885	0.71
148	47092	886	0
148	47148	887	0
148	47200	888	0
148	47252	889	0
148	47304	890	0
148	47333	891	0
148	47362	892	0
148	47391	893	0
148	47420	894	0
148	47449	895	0
148	47478	896	0
148	47507	897	0
148	47534	898	0
148	47561	899	0
148	47588	900	0
148	47615	901	0
148	47642	902	0
148	47669	903	0
148	47696	904	0
148	47723	905	0
148	47750	906	0
148	47777	907	0
148	47804	908	0
148	47831	909	0
148	47860	910	0
148	47889	911	0
148	47918	912	0
148	47947	913	0
148	47976	914	0
148	48005	915	0
148	48034	916	0
148	48063	917	0
148	48088	918	0
148	48113	919	0
148	48138	920	0
148	48148	921	0
148	48158	922	0
148	48168	923	0.8
148	48178	924	0.8
148	48188	925	0.8
148	48198	926	0.8
148	48208	927	0.8
148	48218	928	0.8
148	48228	929	0.8
148	48238	930	0.8
148	48248	931	0.8
148	48258	932	0.8
148	48268	933	0.32999999999999
148	48278	934	0
148	48288	935	0
148	48298	936	0
148	48308	937	0
148	48318	938	0
148	48328	939	0
148	48340	940	0
148	48352	941	0
148	48364	942	0
148	48376	943	0
148	48388	944	0
148	48400	945	0
148	48412	946	0
148	48424	947	0
148	48436	948	0
148	48448	949	0
147	46322	872	0.8
147	46376	873	1.6
147	46430	874	2.4
147	46484	875	3.2
147	46538	876	4
147	46592	877	4.8
147	46646	878	5.6
147	46700	879	6.4
147	46756	880	7.2
147	46812	881	8
147	46868	882	8.8
147	46924	883	9.6
147	46980	884	10.4
147	47036	885	11.11
147	47092	886	11.11
147	47148	887	11.11
147	47200	888	11.11
147	47252	889	11.11
147	47304	890	11.11
147	47333	891	11.11
147	47362	892	11.11
147	47391	893	11.11
147	47420	894	11.11
147	47449	895	11.11
147	47478	896	11.11
147	47507	897	11.11
147	47534	898	11.11
147	47561	899	11.11
147	47588	900	11.11
147	47615	901	11.11
147	47642	902	11.11
147	47669	903	11.11
147	47696	904	11.11
147	47723	905	11.11
147	47750	906	11.11
147	47777	907	11.11
147	47804	908	11.11
147	47831	909	11.11
147	47860	910	11.11
147	47889	911	11.11
147	47918	912	11.11
147	47947	913	11.11
147	47976	914	11.11
147	48005	915	11.11
147	48034	916	11.11
147	48063	917	11.11
147	48088	918	11.11
147	48113	919	11.11
147	48138	920	11.11
147	48148	921	11.11
147	48158	922	11.11
147	48168	923	11.91
147	48178	924	12.71
147	48188	925	13.51
147	48198	926	14.31
147	48208	927	15.11
147	48218	928	15.91
147	48228	929	16.71
147	48238	930	17.51
147	48248	931	18.31
147	48258	932	19.11
147	48268	933	19.44
147	48278	934	19.44
147	48288	935	19.44
147	48298	936	19.44
147	48308	937	19.44
147	48318	938	19.44
147	48328	939	19.44
147	48340	940	19.44
147	48352	941	19.44
147	48364	942	19.44
147	48376	943	19.44
147	48388	944	19.44
147	48400	945	19.44
147	48412	946	19.44
147	48424	947	19.44
147	48436	948	19.44
147	48448	949	19.44
146	46285	871	23.35
146	46322	872	23.35
146	46376	873	23.35
146	46430	874	23.35
146	46484	875	23.35
146	46538	876	23.35
146	46592	877	23.35
146	46646	878	23.35
146	46700	879	23.35
146	46756	880	23.35
146	46812	881	23.35
146	46868	882	23.35
146	46924	883	23.35
146	46980	884	23.35
146	47036	885	23.35
146	47092	886	23.35
146	47148	887	23.35
146	47200	888	23.35
146	47252	889	23.35
146	47304	890	23.35
146	47333	891	23.35
146	47362	892	23.35
146	47391	893	23.35
146	47420	894	23.35
146	47449	895	23.35
146	47478	896	23.35
146	47507	897	23.35
146	47534	898	23.35
146	47561	899	23.35
146	47588	900	23.35
146	47615	901	23.35
146	47642	902	23.35
146	47669	903	23.35
146	47696	904	23.35
146	47723	905	23.35
146	47750	906	23.35
146	47777	907	23.35
146	47804	908	23.35
146	47831	909	23.35
146	47860	910	23.35
146	47889	911	23.35
146	47918	912	23.35
146	47947	913	23.35
146	47976	914	23.35
146	48005	915	23.35
146	48034	916	23.35
146	48063	917	23.35
146	48088	918	23.35
146	48113	919	23.35
146	48138	920	23.35
146	48148	921	23.35
146	48158	922	23.35
146	48168	923	23.394479980085
146	48178	924	26.65
146	48188	925	26.65
146	48198	926	26.65
146	48208	927	26.65
146	48218	928	26.65
146	48228	929	26.65
146	48238	930	26.65
146	48248	931	26.65
146	48258	932	26.65
146	48268	933	26.65
146	48278	934	26.65
146	48288	935	26.65
146	48298	936	26.65
146	48308	937	26.65
146	48318	938	26.65
146	48328	939	26.65
146	48340	940	26.65
146	48352	941	26.65
146	48364	942	26.65
146	48376	943	26.65
146	48388	944	26.65
146	48400	945	26.65
146	48412	946	26.65
146	48424	947	26.65
146	48436	948	26.65
146	48448	949	26.65
145	46285	871	519.9
145	46322	872	519.9
145	46376	873	519.1
145	46430	874	517.5
145	46484	875	515.1
145	46538	876	511.9
145	46592	877	507.9
145	46646	878	503.1
145	46700	879	497.5
145	46756	880	491.1
145	46812	881	483.9
145	46868	882	475.9
145	46924	883	467.1
145	46980	884	457.5
145	47036	885	447.1
145	47092	886	435.99
145	47148	887	424.88
145	47200	888	413.77
145	47252	889	402.66
145	47304	890	391.55
145	47333	891	380.44
145	47362	892	369.33
145	47391	893	358.22
145	47420	894	347.11
145	47449	895	336
145	47478	896	324.89
145	47507	897	313.78
145	47534	898	302.67
145	47561	899	291.56
145	47588	900	280.45
145	47615	901	269.34
145	47642	902	258.23
145	47669	903	247.12
145	47696	904	236.01
145	47723	905	224.9
145	47750	906	213.79
145	47777	907	202.68
145	47804	908	191.57
145	47831	909	180.46
145	47860	910	169.35
145	47889	911	158.24
145	47918	912	147.13
145	47947	913	136.02
145	47976	914	124.91
145	48005	915	113.8
145	48034	916	102.69
145	48063	917	91.58
145	48088	918	80.47
145	48113	919	69.36
145	48138	920	58.25
145	48148	921	47.14
145	48158	922	36.03
145	48168	923	24.933547981559
145	48178	924	32.17
145	48188	925	44.88
145	48198	926	58.39
145	48208	927	72.7
145	48218	928	87.81
145	48228	929	103.72
145	48238	930	120.43
145	48248	931	137.94
145	48258	932	156.25
145	48268	933	175.36
145	48278	934	194.8
145	48288	935	214.24
145	48298	936	233.68
145	48308	937	253.12
145	48318	938	272.56
145	48328	939	292
145	48340	940	311.44
145	48352	941	330.88
145	48364	942	350.32
145	48376	943	369.76
145	48388	944	389.2
145	48400	945	408.64
145	48412	946	428.08
145	48424	947	447.52
145	48436	948	466.96
145	48448	949	486.4
