version 2
run WithoutChannelSwitching-0-20180924-12:23:55-8341
attr configname WithoutChannelSwitching
attr datetime 20180924-12:23:55
attr experiment WithoutChannelSwitching
attr inifile omnetpp.ini
attr iterationvars ""
attr iterationvarsf ""
attr measurement ""
attr network SimpleSimulation.SimpleRSUScenario
attr processid 8341
attr repetition 0
attr replication #0
attr resultdir results
attr runnumber 0
attr seedset 0
param **.debug false
param **.coreDebug false
param *.playgroundSizeX 600m
param *.playgroundSizeY 600m
param *.playgroundSizeZ 50m
param *.annotations.draw true
param *.manager.updateInterval 1s
param *.manager.host "\"localhost\""
param *.manager.port 9998
param *.manager.autoShutdown true
param *.manager.launchConfig "xmldoc(\"cross1L.launchd.xml\")"
param *.rsu[0].mobility.x 50
param *.rsu[0].mobility.y 50
param *.rsu[0].mobility.z 3
param *.rsu[*].applType "\"BaseProtocolApp.BaseProtocolAppRSU\""
param *.rsu[*].appl.headerLength "80 bit"
param *.rsu[*].appl.sendBeacons false
param *.rsu[*].appl.dataOnSch false
param *.rsu[*].appl.beaconInterval 1s
param *.rsu[*].appl.beaconUserPriority 7
param *.rsu[*].appl.dataUserPriority 5
param *.connectionManager.sendDirect true
param *.connectionManager.maxInterfDist 2600m
param *.connectionManager.drawMaxIntfDist false
param *.**.nic.mac1609_4.useServiceChannel false
param *.**.nic.mac1609_4.txPower 20mW
param *.**.nic.mac1609_4.bitrate 6Mbps
param *.**.nic.phy80211p.sensitivity -89dBm
param *.**.nic.phy80211p.useThermalNoise true
param *.**.nic.phy80211p.thermalNoise -110dBm
param *.**.nic.phy80211p.decider "xmldoc(\"config.xml\")"
param *.**.nic.phy80211p.analogueModels "xmldoc(\"config.xml\")"
param *.**.nic.phy80211p.usePropagationDelay true
param *.**.nic.phy80211p.antenna "xmldoc(\"antenna.xml\", \"/root/Antenna[@id='monopole']\")"
param *.node[*].applType "\"BaseProtocolAppCar\""
param *.node[*].appl.headerLength "80 bit"
param *.node[*].appl.sendBeacons false
param *.node[*].appl.dataOnSch false
param *.node[*].appl.beaconInterval 1s
param *.node[*].appl.dataPriority 2
param *.node[*].appl.carSignature 0
param *.node[*].veinsmobilityType.debug true
param *.node[*].veinsmobility.x -1
param *.node[*].veinsmobility.y -1
param *.node[*].veinsmobility.z 1.895

vector 0 SimpleRSUScenario.node[0].veinsmobility posx ETV
vector 1 SimpleRSUScenario.node[0].veinsmobility posy ETV
vector 2 SimpleRSUScenario.node[0].veinsmobility speed ETV
vector 3 SimpleRSUScenario.node[0].veinsmobility acceleration ETV
vector 4 SimpleRSUScenario.node[0].veinsmobility co2emission ETV
vector 5 SimpleRSUScenario.node[1].veinsmobility posx ETV
vector 6 SimpleRSUScenario.node[1].veinsmobility posy ETV
vector 7 SimpleRSUScenario.node[1].veinsmobility speed ETV
vector 8 SimpleRSUScenario.node[1].veinsmobility acceleration ETV
vector 9 SimpleRSUScenario.node[1].veinsmobility co2emission ETV
4	33	3	1.4960423838925
4	35	4	1.6897730456371
4	36	5	1.8843550711398
4	37	6	2.08007224832
4	38	7	2.277208365097
4	39	8	2.4760472093901
4	40	9	2.6768725691187
4	41	10	2.8799682322022
4	42	11	3.08561798656
4	43	12	3.2941056201114
4	44	13	3.5057149207757
4	45	14	3.7207296764723
4	46	15	3.9394336751206
4	47	16	4.16211070464
4	48	17	4.3890445529498
4	49	18	4.6205190079693
4	50	19	4.8568178576179
4	51	20	5.098224889815
4	52	21	5.34502389248
4	53	22	5.5974986535322
4	54	23	5.8559329608909
4	55	24	6.1206106024755
4	56	25	6.3918153662054
4	57	26	3.8508696104367
4	58	27	2.7264600104367
4	59	28	2.7264600104367
4	60	29	2.7264600104367
4	61	30	2.7264600104367
4	62	31	2.7264600104367
4	63	32	2.7264600104367
4	105	33	2.7264600104367
4	107	34	2.7264600104367
4	108	35	2.7264600104367
4	109	36	2.7264600104367
4	110	37	2.7264600104367
4	111	38	2.7264600104367
3	33	3	0.8
3	35	4	0.8
3	36	5	0.8
3	37	6	0.8
3	38	7	0.8
3	39	8	0.8
3	40	9	0.8
3	41	10	0.8
3	42	11	0.8
3	43	12	0.8
3	44	13	0.8
3	45	14	0.8
3	46	15	0.8
3	47	16	0.8
3	48	17	0.8
3	49	18	0.8
3	50	19	0.8
3	51	20	0.8
3	52	21	0.8
3	53	22	0.8
3	54	23	0.8
3	55	24	0.8
3	56	25	0.8
3	57	26	0.23999999999999
3	58	27	0
3	59	28	0
3	60	29	0
3	61	30	0
3	62	31	0
3	63	32	0
3	105	33	0
3	107	34	0
3	108	35	0
3	109	36	0
3	110	37	0
3	111	38	0
2	3	2	0.8
2	33	3	1.6
2	35	4	2.4
2	36	5	3.2
2	37	6	4
2	38	7	4.8
2	39	8	5.6
2	40	9	6.4
2	41	10	7.2
2	42	11	8
2	43	12	8.8
2	44	13	9.6
2	45	14	10.4
2	46	15	11.2
2	47	16	12
2	48	17	12.8
2	49	18	13.6
2	50	19	14.4
2	51	20	15.2
2	52	21	16
2	53	22	16.8
2	54	23	17.6
2	55	24	18.4
2	56	25	19.2
2	57	26	19.44
2	58	27	19.44
2	59	28	19.44
2	60	29	19.44
2	61	30	19.44
2	62	31	19.44
2	63	32	19.44
2	105	33	19.44
2	107	34	19.44
2	108	35	19.44
2	109	36	19.44
2	110	37	19.44
2	111	38	19.44
1	2	1	26.65
1	3	2	26.65
1	33	3	26.65
1	35	4	26.65
1	36	5	26.65
1	37	6	26.65
1	38	7	26.65
1	39	8	26.65
1	40	9	26.65
1	41	10	26.65
1	42	11	26.65
1	43	12	26.65
1	44	13	26.65
1	45	14	26.65
1	46	15	26.65
1	47	16	26.65
1	48	17	26.65
1	49	18	26.65
1	50	19	26.65
1	51	20	26.65
1	52	21	26.65
1	53	22	26.65
1	54	23	26.65
1	55	24	26.65
1	56	25	26.65
1	57	26	26.65
1	58	27	26.65
1	59	28	26.65
1	60	29	26.65
1	61	30	26.65
1	62	31	26.65
1	63	32	26.65
1	105	33	26.65
1	107	34	26.65
1	108	35	26.65
1	109	36	26.65
1	110	37	26.65
1	111	38	26.65
0	2	1	30.1
0	3	2	30.1
0	33	3	30.9
0	35	4	32.5
0	36	5	34.9
0	37	6	38.1
0	38	7	42.1
0	39	8	46.9
0	40	9	52.5
0	41	10	58.9
0	42	11	66.1
0	43	12	74.1
0	44	13	82.9
0	45	14	92.5
0	46	15	102.9
0	47	16	114.1
0	48	17	126.1
0	49	18	138.9
0	50	19	152.5
0	51	20	166.9
0	52	21	182.1
0	53	22	198.1
0	54	23	214.9
0	55	24	232.5
0	56	25	250.9
0	57	26	270.1
0	58	27	289.54
0	59	28	308.98
0	60	29	328.42
0	61	30	347.86
0	62	31	367.3
0	63	32	386.74
0	105	33	406.18
0	107	34	425.62
0	108	35	445.06
0	109	36	464.5
0	110	37	483.94
0	111	38	503.38
vector 10 SimpleRSUScenario.node[2].veinsmobility posx ETV
vector 11 SimpleRSUScenario.node[2].veinsmobility posy ETV
vector 12 SimpleRSUScenario.node[2].veinsmobility speed ETV
vector 13 SimpleRSUScenario.node[2].veinsmobility acceleration ETV
vector 14 SimpleRSUScenario.node[2].veinsmobility co2emission ETV
9	105	33	1.4960423838925
9	107	34	1.6897730456371
9	108	35	1.8843550711398
9	109	36	2.08007224832
9	110	37	2.277208365097
9	111	38	2.4760472093901
9	112	39	2.6768725691187
9	113	40	2.8799682322022
9	114	41	3.08561798656
9	115	42	3.2941056201114
9	116	43	3.5057149207757
9	117	44	3.7207296764723
9	118	45	3.9394336751206
9	119	46	4.16211070464
9	120	47	4.3890445529498
9	121	48	4.6205190079693
9	122	49	4.8568178576179
9	123	50	5.098224889815
9	124	51	5.34502389248
9	125	52	5.5974986535322
9	126	53	5.8559329608909
9	127	54	6.1206106024755
9	128	55	6.3918153662054
9	129	56	3.8508696104367
9	130	57	2.7264600104367
9	131	58	2.7264600104367
9	132	59	2.7264600104367
9	133	60	2.7264600104367
9	134	61	2.7264600104367
9	135	62	2.7264600104367
9	177	63	2.7264600104367
9	179	64	2.7264600104367
9	180	65	2.7264600104367
9	181	66	2.7264600104367
9	182	67	2.7264600104367
9	183	68	2.7264600104367
8	105	33	0.8
8	107	34	0.8
8	108	35	0.8
8	109	36	0.8
8	110	37	0.8
8	111	38	0.8
8	112	39	0.8
8	113	40	0.8
8	114	41	0.8
8	115	42	0.8
8	116	43	0.8
8	117	44	0.8
8	118	45	0.8
8	119	46	0.8
8	120	47	0.8
8	121	48	0.8
8	122	49	0.8
8	123	50	0.8
8	124	51	0.8
8	125	52	0.8
8	126	53	0.8
8	127	54	0.8
8	128	55	0.8
8	129	56	0.23999999999999
8	130	57	0
8	131	58	0
8	132	59	0
8	133	60	0
8	134	61	0
8	135	62	0
8	177	63	0
8	179	64	0
8	180	65	0
8	181	66	0
8	182	67	0
8	183	68	0
7	63	32	0.8
7	105	33	1.6
7	107	34	2.4
7	108	35	3.2
7	109	36	4
7	110	37	4.8
7	111	38	5.6
7	112	39	6.4
7	113	40	7.2
7	114	41	8
7	115	42	8.8
7	116	43	9.6
7	117	44	10.4
7	118	45	11.2
7	119	46	12
7	120	47	12.8
7	121	48	13.6
7	122	49	14.4
7	123	50	15.2
7	124	51	16
7	125	52	16.8
7	126	53	17.6
7	127	54	18.4
7	128	55	19.2
7	129	56	19.44
7	130	57	19.44
7	131	58	19.44
7	132	59	19.44
7	133	60	19.44
7	134	61	19.44
7	135	62	19.44
7	177	63	19.44
7	179	64	19.44
7	180	65	19.44
7	181	66	19.44
7	182	67	19.44
7	183	68	19.44
6	62	31	26.65
6	63	32	26.65
6	105	33	26.65
6	107	34	26.65
6	108	35	26.65
6	109	36	26.65
6	110	37	26.65
6	111	38	26.65
6	112	39	26.65
6	113	40	26.65
6	114	41	26.65
6	115	42	26.65
6	116	43	26.65
6	117	44	26.65
6	118	45	26.65
6	119	46	26.65
6	120	47	26.65
6	121	48	26.65
6	122	49	26.65
6	123	50	26.65
6	124	51	26.65
6	125	52	26.65
6	126	53	26.65
6	127	54	26.65
6	128	55	26.65
6	129	56	26.65
6	130	57	26.65
6	131	58	26.65
6	132	59	26.65
6	133	60	26.65
6	134	61	26.65
6	135	62	26.65
6	177	63	26.65
6	179	64	26.65
6	180	65	26.65
6	181	66	26.65
6	182	67	26.65
6	183	68	26.65
5	62	31	30.1
5	63	32	30.1
5	105	33	30.9
5	107	34	32.5
5	108	35	34.9
5	109	36	38.1
5	110	37	42.1
5	111	38	46.9
5	112	39	52.5
5	113	40	58.9
5	114	41	66.1
5	115	42	74.1
5	116	43	82.9
5	117	44	92.5
5	118	45	102.9
5	119	46	114.1
5	120	47	126.1
5	121	48	138.9
5	122	49	152.5
5	123	50	166.9
5	124	51	182.1
5	125	52	198.1
5	126	53	214.9
5	127	54	232.5
5	128	55	250.9
5	129	56	270.1
5	130	57	289.54
5	131	58	308.98
5	132	59	328.42
5	133	60	347.86
5	134	61	367.3
5	135	62	386.74
5	177	63	406.18
5	179	64	425.62
5	180	65	445.06
5	181	66	464.5
5	182	67	483.94
5	183	68	503.38
vector 15 SimpleRSUScenario.node[3].veinsmobility posx ETV
vector 16 SimpleRSUScenario.node[3].veinsmobility posy ETV
vector 17 SimpleRSUScenario.node[3].veinsmobility speed ETV
vector 18 SimpleRSUScenario.node[3].veinsmobility acceleration ETV
vector 19 SimpleRSUScenario.node[3].veinsmobility co2emission ETV
14	177	63	1.4960423838925
14	179	64	1.6897730456371
14	180	65	1.8843550711398
14	181	66	2.08007224832
14	182	67	2.277208365097
14	183	68	2.4760472093901
14	184	69	2.6768725691187
14	185	70	2.8799682322022
14	186	71	3.08561798656
14	187	72	3.2941056201114
14	188	73	3.5057149207757
14	189	74	3.7207296764723
14	190	75	3.9394336751206
14	191	76	4.16211070464
14	192	77	4.3890445529498
14	193	78	4.6205190079693
14	194	79	4.8568178576179
14	195	80	5.098224889815
14	196	81	5.34502389248
14	197	82	5.5974986535322
14	198	83	5.8559329608909
14	199	84	6.1206106024755
14	200	85	6.3918153662054
14	201	86	3.8508696104367
14	202	87	2.7264600104367
14	203	88	2.7264600104367
14	204	89	2.7264600104367
14	205	90	2.7264600104367
14	206	91	2.7264600104367
14	207	92	2.7264600104367
14	249	93	2.7264600104367
14	251	94	2.7264600104367
14	252	95	2.7264600104367
14	253	96	2.7264600104367
14	254	97	2.7264600104367
14	255	98	2.7264600104367
13	177	63	0.8
13	179	64	0.8
13	180	65	0.8
13	181	66	0.8
13	182	67	0.8
13	183	68	0.8
13	184	69	0.8
13	185	70	0.8
13	186	71	0.8
13	187	72	0.8
13	188	73	0.8
13	189	74	0.8
13	190	75	0.8
13	191	76	0.8
13	192	77	0.8
13	193	78	0.8
13	194	79	0.8
13	195	80	0.8
13	196	81	0.8
13	197	82	0.8
13	198	83	0.8
13	199	84	0.8
13	200	85	0.8
13	201	86	0.23999999999999
13	202	87	0
13	203	88	0
13	204	89	0
13	205	90	0
13	206	91	0
13	207	92	0
13	249	93	0
13	251	94	0
13	252	95	0
13	253	96	0
13	254	97	0
13	255	98	0
12	135	62	0.8
12	177	63	1.6
12	179	64	2.4
12	180	65	3.2
12	181	66	4
12	182	67	4.8
12	183	68	5.6
12	184	69	6.4
12	185	70	7.2
12	186	71	8
12	187	72	8.8
12	188	73	9.6
12	189	74	10.4
12	190	75	11.2
12	191	76	12
12	192	77	12.8
12	193	78	13.6
12	194	79	14.4
12	195	80	15.2
12	196	81	16
12	197	82	16.8
12	198	83	17.6
12	199	84	18.4
12	200	85	19.2
12	201	86	19.44
12	202	87	19.44
12	203	88	19.44
12	204	89	19.44
12	205	90	19.44
12	206	91	19.44
12	207	92	19.44
12	249	93	19.44
12	251	94	19.44
12	252	95	19.44
12	253	96	19.44
12	254	97	19.44
12	255	98	19.44
11	134	61	26.65
11	135	62	26.65
11	177	63	26.65
11	179	64	26.65
11	180	65	26.65
11	181	66	26.65
11	182	67	26.65
11	183	68	26.65
11	184	69	26.65
11	185	70	26.65
11	186	71	26.65
11	187	72	26.65
11	188	73	26.65
11	189	74	26.65
11	190	75	26.65
11	191	76	26.65
11	192	77	26.65
11	193	78	26.65
11	194	79	26.65
11	195	80	26.65
11	196	81	26.65
11	197	82	26.65
11	198	83	26.65
11	199	84	26.65
11	200	85	26.65
11	201	86	26.65
11	202	87	26.65
11	203	88	26.65
11	204	89	26.65
11	205	90	26.65
11	206	91	26.65
11	207	92	26.65
11	249	93	26.65
11	251	94	26.65
11	252	95	26.65
11	253	96	26.65
11	254	97	26.65
11	255	98	26.65
10	134	61	30.1
10	135	62	30.1
10	177	63	30.9
10	179	64	32.5
10	180	65	34.9
10	181	66	38.1
10	182	67	42.1
10	183	68	46.9
10	184	69	52.5
10	185	70	58.9
10	186	71	66.1
10	187	72	74.1
10	188	73	82.9
10	189	74	92.5
10	190	75	102.9
10	191	76	114.1
10	192	77	126.1
10	193	78	138.9
10	194	79	152.5
10	195	80	166.9
10	196	81	182.1
10	197	82	198.1
10	198	83	214.9
10	199	84	232.5
10	200	85	250.9
10	201	86	270.1
10	202	87	289.54
10	203	88	308.98
10	204	89	328.42
10	205	90	347.86
10	206	91	367.3
10	207	92	386.74
10	249	93	406.18
10	251	94	425.62
10	252	95	445.06
10	253	96	464.5
10	254	97	483.94
10	255	98	503.38
vector 20 SimpleRSUScenario.node[4].veinsmobility posx ETV
vector 21 SimpleRSUScenario.node[4].veinsmobility posy ETV
vector 22 SimpleRSUScenario.node[4].veinsmobility speed ETV
vector 23 SimpleRSUScenario.node[4].veinsmobility acceleration ETV
vector 24 SimpleRSUScenario.node[4].veinsmobility co2emission ETV
19	249	93	1.4960423838925
19	251	94	1.6897730456371
19	252	95	1.8843550711398
19	253	96	2.08007224832
19	254	97	2.277208365097
19	255	98	2.4760472093901
19	256	99	2.6768725691187
19	257	100	2.8799682322022
19	258	101	3.08561798656
19	259	102	3.2941056201114
19	260	103	3.5057149207757
19	261	104	3.7207296764723
19	262	105	3.9394336751206
19	263	106	4.16211070464
19	264	107	4.3890445529498
19	265	108	4.6205190079693
19	266	109	4.8568178576179
19	267	110	5.098224889815
19	268	111	5.34502389248
19	269	112	5.5974986535322
19	270	113	5.8559329608909
19	271	114	6.1206106024755
19	272	115	6.3918153662054
19	273	116	3.8508696104367
19	274	117	2.7264600104367
19	275	118	2.7264600104367
19	276	119	2.7264600104367
19	277	120	2.7264600104367
19	278	121	2.7264600104367
19	279	122	2.7264600104367
19	321	123	2.7264600104367
19	323	124	2.7264600104367
19	324	125	2.7264600104367
19	325	126	2.7264600104367
19	326	127	2.7264600104367
19	327	128	2.7264600104367
18	249	93	0.8
18	251	94	0.8
18	252	95	0.8
18	253	96	0.8
18	254	97	0.8
18	255	98	0.8
18	256	99	0.8
18	257	100	0.8
18	258	101	0.8
18	259	102	0.8
18	260	103	0.8
18	261	104	0.8
18	262	105	0.8
18	263	106	0.8
18	264	107	0.8
18	265	108	0.8
18	266	109	0.8
18	267	110	0.8
18	268	111	0.8
18	269	112	0.8
18	270	113	0.8
18	271	114	0.8
18	272	115	0.8
18	273	116	0.23999999999999
18	274	117	0
18	275	118	0
18	276	119	0
18	277	120	0
18	278	121	0
18	279	122	0
18	321	123	0
18	323	124	0
18	324	125	0
18	325	126	0
18	326	127	0
18	327	128	0
17	207	92	0.8
17	249	93	1.6
17	251	94	2.4
17	252	95	3.2
17	253	96	4
17	254	97	4.8
17	255	98	5.6
17	256	99	6.4
17	257	100	7.2
17	258	101	8
17	259	102	8.8
17	260	103	9.6
17	261	104	10.4
17	262	105	11.2
17	263	106	12
17	264	107	12.8
17	265	108	13.6
17	266	109	14.4
17	267	110	15.2
17	268	111	16
17	269	112	16.8
17	270	113	17.6
17	271	114	18.4
17	272	115	19.2
17	273	116	19.44
17	274	117	19.44
17	275	118	19.44
17	276	119	19.44
17	277	120	19.44
17	278	121	19.44
17	279	122	19.44
17	321	123	19.44
17	323	124	19.44
17	324	125	19.44
17	325	126	19.44
17	326	127	19.44
17	327	128	19.44
16	206	91	26.65
16	207	92	26.65
16	249	93	26.65
16	251	94	26.65
16	252	95	26.65
16	253	96	26.65
16	254	97	26.65
16	255	98	26.65
16	256	99	26.65
16	257	100	26.65
16	258	101	26.65
16	259	102	26.65
16	260	103	26.65
16	261	104	26.65
16	262	105	26.65
16	263	106	26.65
16	264	107	26.65
16	265	108	26.65
16	266	109	26.65
16	267	110	26.65
16	268	111	26.65
16	269	112	26.65
16	270	113	26.65
16	271	114	26.65
16	272	115	26.65
16	273	116	26.65
16	274	117	26.65
16	275	118	26.65
16	276	119	26.65
16	277	120	26.65
16	278	121	26.65
16	279	122	26.65
16	321	123	26.65
16	323	124	26.65
16	324	125	26.65
16	325	126	26.65
16	326	127	26.65
16	327	128	26.65
15	206	91	30.1
15	207	92	30.1
15	249	93	30.9
15	251	94	32.5
15	252	95	34.9
15	253	96	38.1
15	254	97	42.1
15	255	98	46.9
15	256	99	52.5
15	257	100	58.9
15	258	101	66.1
15	259	102	74.1
15	260	103	82.9
15	261	104	92.5
15	262	105	102.9
15	263	106	114.1
15	264	107	126.1
15	265	108	138.9
15	266	109	152.5
15	267	110	166.9
15	268	111	182.1
15	269	112	198.1
15	270	113	214.9
15	271	114	232.5
15	272	115	250.9
15	273	116	270.1
15	274	117	289.54
15	275	118	308.98
15	276	119	328.42
15	277	120	347.86
15	278	121	367.3
15	279	122	386.74
15	321	123	406.18
15	323	124	425.62
15	324	125	445.06
15	325	126	464.5
15	326	127	483.94
15	327	128	503.38
vector 25 SimpleRSUScenario.node[5].veinsmobility posx ETV
vector 26 SimpleRSUScenario.node[5].veinsmobility posy ETV
vector 27 SimpleRSUScenario.node[5].veinsmobility speed ETV
