version 2
run General-0-20190109-16:40:35-8828
attr configname General
attr datetime 20190109-16:40:35
attr experiment General
attr inifile omnetpp.ini
attr iterationvars ""
attr iterationvarsf ""
attr measurement ""
attr network BoxSimulation.MCBoxScenario
attr processid 8828
attr repetition 0
attr replication #0
attr resultdir results
attr runnumber 0
attr seedset 0
param **.debug false
param **.coreDebug false
param *.playgroundSizeX 560m
param *.playgroundSizeY 560m
param *.playgroundSizeZ 560m
param *.annotations.draw true
param *.manager.updateInterval 1s
param *.manager.host "\"localhost\""
param *.manager.port 9998
param *.manager.autoShutdown true
param *.manager.launchConfig "xmldoc(\"box.launchd.xml\")"
param *.rsu[0].mobility.x 120
param *.rsu[0].mobility.y 300
param *.rsu[0].mobility.z 0
param *.rsu[1].mobility.x 280
param *.rsu[1].mobility.y 140
param *.rsu[1].mobility.z 0
param *.rsu[2].mobility.x 440
param *.rsu[2].mobility.y 300
param *.rsu[2].mobility.z 0
param *.rsu[3].mobility.x 280
param *.rsu[3].mobility.y 460
param *.rsu[3].mobility.z 0
param *.rsu[*].applType "\"CNNApp.CNNAppRSU\""
param *.rsu[*].appl.headerLength "80 bit"
param *.rsu[*].appl.sendBeacons false
param *.rsu[*].appl.dataOnSch false
param *.rsu[*].appl.beaconInterval 1s
param *.rsu[*].appl.beaconUserPriority 7
param *.rsu[*].appl.dataUserPriority 5
param *.rsu[0].appl.rsuId 0
param *.rsu[1].appl.rsuId 1
param *.rsu[2].appl.rsuId 2
param *.rsu[3].appl.rsuId 3
param *.connectionManager.sendDirect true
param *.connectionManager.maxInterfDist 2600m
param *.connectionManager.drawMaxIntfDist false
param *.**.nic.mac1609_4.useServiceChannel false
param *.**.nic.mac1609_4.txPower 20mW
param *.**.nic.mac1609_4.bitrate 6Mbps
param *.**.nic.phy80211p.sensitivity -89dBm
param *.**.nic.phy80211p.useThermalNoise true
param *.**.nic.phy80211p.thermalNoise -110dBm
param *.**.nic.phy80211p.decider "xmldoc(\"config.xml\")"
param *.**.nic.phy80211p.analogueModels "xmldoc(\"config.xml\")"
param *.**.nic.phy80211p.usePropagationDelay true
param *.**.nic.phy80211p.antenna "xmldoc(\"antenna.xml\", \"/root/Antenna[@id='monopole']\")"
param *.node[*].applType "\"CNNApp.CNNAppCar\""
param *.node[*].appl.headerLength "80 bit"
param *.node[*].appl.sendBeacons false
param *.node[*].appl.dataOnSch false
param *.node[*].appl.beaconInterval 1s
param *.node[*].veinsmobilityType.debug true
param *.node[*].veinsmobility.x -1
param *.node[*].veinsmobility.y -1
param *.node[*].veinsmobility.z 1.895
param *.**.nic.mac1609_4.useServiceChannel true
param *.node[*].appl.dataOnSch true
param *.rsu[*].appl.dataOnSch true

vector 0 MCBoxScenario.node[0].veinsmobility posx ETV
vector 1 MCBoxScenario.node[0].veinsmobility posy ETV
vector 2 MCBoxScenario.node[0].veinsmobility speed ETV
vector 3 MCBoxScenario.node[0].veinsmobility acceleration ETV
vector 4 MCBoxScenario.node[0].veinsmobility co2emission ETV
4	61	3	1.4960423838925
4	63	4	1.6897730456371
4	64	5	1.8843550711398
4	66	6	2.08007224832
4	67	7	2.277208365097
4	69	8	2.4760472093901
4	70	9	2.6768725691187
4	72	10	2.8799682322022
4	73	11	3.08561798656
4	75	12	3.2941056201114
4	76	13	3.5057149207757
4	78	14	3.7207296764723
4	80	15	3.9394336751206
4	81	16	4.16211070464
4	83	17	4.3890445529498
4	84	18	4.6205190079693
4	86	19	4.8568178576179
4	87	20	5.098224889815
4	89	21	5.34502389248
4	90	22	5.5974986535322
4	92	23	5.8559329608909
4	94	24	6.1206106024755
4	95	25	6.3918153662054
4	97	26	6.66983104
4	98	27	6.9549414117786
4	100	28	7.2474302694605
4	101	29	7.5475814009651
4	103	30	7.8556785942118
4	105	31	8.17200563712
4	106	32	8.496846317609
4	108	33	8.8304844235981
4	109	34	9.1732037430067
4	111	35	9.5252880637542
4	113	36	9.88702117376
4	114	37	10.258686860943
4	172	38	10.640568913224
4	173	39	11.03295111852
4	175	40	11.436117264753
4	176	41	11.85035113984
4	178	42	12.275936531702
4	180	43	12.713157228257
4	181	44	13.162297017426
4	183	45	13.623639687127
4	184	46	14.09746902528
4	186	47	7.15666902528
4	187	48	7.15666902528
4	189	49	7.15666902528
4	191	50	7.15666902528
4	192	51	7.15666902528
4	218	52	7.15666902528
4	251	53	7.15666902528
4	253	54	7.15666902528
4	254	55	7.15666902528
4	256	56	7.15666902528
4	257	57	7.15666902528
4	259	58	7.15666902528
4	261	59	7.15666902528
4	262	60	7.15666902528
4	264	61	7.15666902528
4	265	62	7.15666902528
4	267	63	7.15666902528
4	268	64	7.15666902528
4	270	65	7.15666902528
4	271	66	7.15666902528
4	329	67	7.15666902528
4	331	68	7.15666902528
4	332	69	7.15666902528
4	333	70	7.15666902528
4	334	71	7.15666902528
4	335	72	7.15666902528
4	336	73	7.15666902528
4	337	74	7.15666902528
4	338	75	7.15666902528
4	339	76	7.15666902528
4	340	77	7.15666902528
3	61	3	0.8
3	63	4	0.8
3	64	5	0.8
3	66	6	0.8
3	67	7	0.8
3	69	8	0.8
3	70	9	0.8
3	72	10	0.8
3	73	11	0.8
3	75	12	0.8
3	76	13	0.8
3	78	14	0.8
3	80	15	0.8
3	81	16	0.8
3	83	17	0.8
3	84	18	0.8
3	86	19	0.8
3	87	20	0.8
3	89	21	0.8
3	90	22	0.8
3	92	23	0.8
3	94	24	0.8
3	95	25	0.8
3	97	26	0.8
3	98	27	0.8
3	100	28	0.8
3	101	29	0.8
3	103	30	0.8
3	105	31	0.8
3	106	32	0.8
3	108	33	0.8
3	109	34	0.8
3	111	35	0.8
3	113	36	0.8
3	114	37	0.8
3	172	38	0.8
3	173	39	0.8
3	175	40	0.8
3	176	41	0.8
3	178	42	0.8
3	180	43	0.8
3	181	44	0.8
3	183	45	0.8
3	184	46	0.8
3	186	47	0
3	187	48	0
3	189	49	0
3	191	50	0
3	192	51	0
3	218	52	0
3	251	53	0
3	253	54	0
3	254	55	0
3	256	56	0
3	257	57	0
3	259	58	0
3	261	59	0
3	262	60	0
3	264	61	0
3	265	62	0
3	267	63	0
3	268	64	0
3	270	65	0
3	271	66	0
3	329	67	0
3	331	68	0
3	332	69	0
3	333	70	0
3	334	71	0
3	335	72	0
3	336	73	0
3	337	74	0
3	338	75	0
3	339	76	0
3	340	77	0
2	4	2	0.8
2	61	3	1.6
2	63	4	2.4
2	64	5	3.2
2	66	6	4
2	67	7	4.8
2	69	8	5.6
2	70	9	6.4
2	72	10	7.2
2	73	11	8
2	75	12	8.8
2	76	13	9.6
2	78	14	10.4
2	80	15	11.2
2	81	16	12
2	83	17	12.8
2	84	18	13.6
2	86	19	14.4
2	87	20	15.2
2	89	21	16
2	90	22	16.8
2	92	23	17.6
2	94	24	18.4
2	95	25	19.2
2	97	26	20
2	98	27	20.8
2	100	28	21.6
2	101	29	22.4
2	103	30	23.2
2	105	31	24
2	106	32	24.8
2	108	33	25.6
2	109	34	26.4
2	111	35	27.2
2	113	36	28
2	114	37	28.8
2	172	38	29.6
2	173	39	30.4
2	175	40	31.2
2	176	41	32
2	178	42	32.8
2	180	43	33.6
2	181	44	34.4
2	183	45	35.2
2	184	46	36
2	186	47	36
2	187	48	36
2	189	49	36
2	191	50	36
2	192	51	36
2	218	52	36
2	251	53	36
2	253	54	36
2	254	55	36
2	256	56	36
2	257	57	36
2	259	58	36
2	261	59	36
2	262	60	36
2	264	61	36
2	265	62	36
2	267	63	36
2	268	64	36
2	270	65	36
2	271	66	36
2	329	67	36
2	331	68	36
2	332	69	36
2	333	70	36
2	334	71	36
2	335	72	36
2	336	73	36
2	337	74	36
2	338	75	36
2	339	76	36
2	340	77	36
1	2	1	516.65
1	4	2	516.65
1	61	3	515.85
1	63	4	514.25
1	64	5	511.85
1	66	6	508.65
1	67	7	504.65
1	69	8	499.85
1	70	9	494.25
1	72	10	487.85
1	73	11	480.65
1	75	12	472.65
1	76	13	463.85
1	78	14	454.25
1	80	15	443.85
1	81	16	432.65
1	83	17	420.65
1	84	18	407.85
1	86	19	394.25
1	87	20	379.85
1	89	21	364.65
1	90	22	348.65
1	92	23	331.85
1	94	24	314.25
1	95	25	295.85
1	97	26	276.65
1	98	27	256.65
1	100	28	235.85
1	101	29	214.25
1	103	30	191.85
1	105	31	168.65
1	106	32	144.65
1	108	33	119.85
1	109	34	94.25
1	111	35	67.85
1	113	36	40.65
1	114	37	26.65
1	172	38	26.65
1	173	39	26.65
1	175	40	26.65
1	176	41	26.65
1	178	42	26.65
1	180	43	26.65
1	181	44	26.65
1	183	45	26.65
1	184	46	26.65
1	186	47	26.65
1	187	48	26.65
1	189	49	26.65
1	191	50	26.65
1	192	51	26.65
1	218	52	49.19
1	251	53	85.19
1	253	54	121.19
1	254	55	157.19
1	256	56	193.19
1	257	57	229.19
1	259	58	265.19
1	261	59	301.19
1	262	60	337.19
1	264	61	373.19
1	265	62	409.19
1	267	63	445.19
1	268	64	481.19
1	270	65	517.19
1	271	66	523.35
1	329	67	523.35
1	331	68	523.35
1	332	69	523.35
1	333	70	523.35
1	334	71	523.35
1	335	72	523.35
1	336	73	523.35
1	337	74	523.35
1	338	75	523.35
1	339	76	523.35
1	340	77	523.35
0	2	1	26.65
0	4	2	26.65
0	61	3	26.65
0	63	4	26.65
0	64	5	26.65
0	66	6	26.65
0	67	7	26.65
0	69	8	26.65
0	70	9	26.65
0	72	10	26.65
0	73	11	26.65
0	75	12	26.65
0	76	13	26.65
0	78	14	26.65
0	80	15	26.65
0	81	16	26.65
0	83	17	26.65
0	84	18	26.65
0	86	19	26.65
0	87	20	26.65
0	89	21	26.65
0	90	22	26.65
0	92	23	26.65
0	94	24	26.65
0	95	25	26.65
0	97	26	26.65
0	98	27	26.65
0	100	28	26.65
0	101	29	26.65
0	103	30	26.65
0	105	31	26.65
0	106	32	26.65
0	108	33	26.65
0	109	34	26.65
0	111	35	26.65
0	113	36	26.65
0	114	37	41.27
0	172	38	70.07
0	173	39	99.67
0	175	40	130.07
0	176	41	161.27
0	178	42	193.27
0	180	43	226.07
0	181	44	259.67
0	183	45	294.07
0	184	46	329.27
0	186	47	365.27
0	187	48	401.27
0	189	49	437.27
0	191	50	473.27
0	192	51	509.27
0	218	52	523.35
0	251	53	523.35
0	253	54	523.35
0	254	55	523.35
0	256	56	523.35
0	257	57	523.35
0	259	58	523.35
0	261	59	523.35
0	262	60	523.35
0	264	61	523.35
0	265	62	523.35
0	267	63	523.35
0	268	64	523.35
0	270	65	523.35
0	271	66	492.89
0	329	67	456.89
0	331	68	420.89
0	332	69	384.89
0	333	70	348.89
0	334	71	312.89
0	335	72	276.89
0	336	73	240.89
0	337	74	204.89
0	338	75	168.89
0	339	76	132.89
0	340	77	96.89

