version 2
run General-2-20190212-16:21:51-6699
attr configname General
attr datetime 20190212-16:21:51
attr experiment General
attr inifile omnetpp.ini
attr iterationvars $0=.9
attr iterationvarsf .9-
attr measurement $0=.9
attr network PasubioSimulation.MCPasubioScenario
attr processid 6699
attr repetition 0
attr replication #0
attr resultdir results
attr runnumber 2
attr seedset 1
param **.debug false
param **.coreDebug false
param *.playgroundSizeX 3000m
param *.playgroundSizeY 3000m
param *.playgroundSizeZ 100m
param *.annotations.draw true
param *.manager.updateInterval 1s
param *.manager.host "\"localhost\""
param *.manager.port 9999
param *.manager.autoShutdown true
param *.manager.launchConfig "xmldoc(\"pasubio.launchd.xml\")"
param *.rsu[0].mobility.x 330
param *.rsu[0].mobility.y 381.49
param *.rsu[0].mobility.z 0
param *.rsu[1].mobility.x 390.79
param *.rsu[1].mobility.y 206.97
param *.rsu[1].mobility.z 0
param *.rsu[2].mobility.x 360.45
param *.rsu[2].mobility.y 294.23
param *.rsu[2].mobility.z 0
param *.rsu[0..1].applType "\"RandomForestApp.VirtualServer\""
param *.rsu[0..1].appl.computationPower 5
param *.rsu[0..1].appl.loadBalancerId 2
param *.rsu[0].appl.id 0
param *.rsu[1].appl.id 1
param *.rsu[0..1].appl.penaltyInterval 10
param *.rsu[0..1].appl.expectedReliability .9
param *.rsu[2].applType "\"RandomForestApp.LoadBalancer\""
param *.rsu[2].appl.id 2
param *.rsu[2].appl.upperBound 1
param *.rsu[2].appl.lowerBound 0
param *.rsu[2].appl.timeOutIntervals 3
param *.rsu[2].appl.expectedComputationWork 10
param *.rsu[2].appl.replicationFactor 2
param *.rsu[2].appl.reputationOn false
param *.rsu[*].appl.headerLength "80 bit"
param *.rsu[*].appl.sendBeacons false
param *.rsu[*].appl.dataOnSch false
param *.rsu[*].appl.beaconInterval 1s
param *.connectionManager.sendDirect true
param *.connectionManager.maxInterfDist 2600m
param *.connectionManager.drawMaxIntfDist false
param *.**.nic.mac1609_4.useServiceChannel false
param *.**.nic.mac1609_4.txPower 20mW
param *.**.nic.mac1609_4.bitrate 6Mbps
param *.**.nic.phy80211p.sensitivity -89dBm
param *.**.nic.phy80211p.useThermalNoise true
param *.**.nic.phy80211p.thermalNoise -110dBm
param *.**.nic.phy80211p.decider "xmldoc(\"config.xml\")"
param *.**.nic.phy80211p.analogueModels "xmldoc(\"config.xml\")"
param *.**.nic.phy80211p.usePropagationDelay true
param *.**.nic.phy80211p.antenna "xmldoc(\"antenna.xml\", \"/root/Antenna[@id='monopole']\")"
param *.node[*].applType "\"RandomForestApp.NoAppCar\""
param *.node[*].appl.headerLength "80 bit"
param *.node[*].appl.sendBeacons false
param *.node[*].appl.dataOnSch false
param *.node[*].appl.beaconInterval 1s
param *.node[*].veinsmobilityType.debug true
param *.node[*].veinsmobility.x -1
param *.node[*].veinsmobility.y -1
param *.node[*].veinsmobility.z 1.895

vector 0 MCPasubioScenario.rsu[2].appl "Task Completed" ETV
vector 1 MCPasubioScenario.rsu[2].appl "Work finished" ETV
0	0	0	0
0	129	2.387107814522	1
0	257	4.387107814522	2
0	385	6.387107814522	3
0	557	9.387107814522	4
0	685	11.387107814522	5
0	813	13.387107814522	6
0	941	15.387107814522	7
0	1069	17.387107814522	8
0	1197	19.387107814522	9
0	1325	21.387107814522	10
0	1453	23.387107814522	11
0	1581	25.387107814522	12
0	1709	27.387107814522	13
0	1837	29.387107814522	14
0	1965	31.387107814522	15
0	2093	33.387107814522	16
0	2221	35.387107814522	17
0	2349	37.387107814522	18
0	2477	39.387107814522	19
0	2605	41.387107814522	20
0	2733	43.387107814522	21
0	2861	45.387107814522	22
0	2989	47.387107814522	23
0	3117	49.387107814522	24
0	3245	51.387107814522	25
0	3373	53.387107814522	26
0	3481	55.387107814522	27
0	3609	57.387107814522	28
0	3737	59.387107814522	29
0	3865	61.387107814522	30
0	3993	63.387107814522	31
0	4121	65.387107814522	32
0	4229	67.387107814522	33
0	4357	69.387107814522	34
0	4485	71.387107814522	35
0	4613	73.387107814522	36
0	4741	75.387107814522	37
0	4869	77.387107814522	38
0	4997	79.387107814522	39
0	5125	81.387107814522	40
0	5253	83.387107814522	41
0	5381	85.387107814522	42
0	5509	87.387107814522	43
0	5637	89.387107814522	44
0	5765	91.387107814522	45
0	5893	93.387107814522	46
0	6021	95.387107814522	47
0	6149	97.387107814522	48
0	6277	99.387107814522	49
0	6405	101.387107814522	50
0	6533	103.387107814522	51
0	6661	105.387107814522	52
0	6789	107.387107814522	53
0	6917	109.387107814522	54
0	7045	111.387107814522	55
0	7173	113.387107814522	56
0	7301	115.387107814522	57
0	7429	117.387107814522	58
0	7557	119.387107814522	59
0	7685	121.387107814522	60
0	7813	123.387107814522	61
0	7941	125.387107814522	62
0	8069	127.387107814522	63
0	8197	129.387107814522	64
0	8325	131.387107814522	65
0	8453	133.387107814522	66
0	8581	135.387107814522	67
0	8709	137.387107814522	68
0	8837	139.387107814522	69
0	8965	141.387107814522	70
0	9093	143.387107814522	71
0	9221	145.387107814522	72
0	9349	147.387107814522	73
0	9477	149.387107814522	74
0	9605	151.387107814522	75
0	9733	153.387107814522	76
0	9861	155.387107814522	77
0	9989	157.387107814522	78
0	10117	159.387107814522	79
0	10245	161.387107814522	80
0	10373	163.387107814522	81
0	10501	165.387107814522	82
0	10629	167.387107814522	83
0	10757	169.387107814522	84
0	10885	171.387107814522	85
0	11013	173.387107814522	86
0	11141	175.387107814522	87
0	11269	177.387107814522	88
0	11397	179.387107814522	89
0	11525	181.387107814522	90
0	11653	183.387107814522	91
0	11781	185.387107814522	92
0	11909	187.387107814522	93
0	12037	189.387107814522	94
0	12165	191.387107814522	95
0	12293	193.387107814522	96
0	12421	195.387107814522	97
0	12549	197.387107814522	98
0	12677	199.387107814522	99
0	12805	201.387107814522	100
0	12933	203.387107814522	101
0	13061	205.387107814522	102
0	13189	207.387107814522	103
0	13317	209.387107814522	104
0	13445	211.387107814522	105
0	13573	213.387107814522	106
0	13701	215.387107814522	107
0	13829	217.387107814522	108
0	13957	219.387107814522	109
0	14085	221.387107814522	110
0	14213	223.387107814522	111
0	14341	225.387107814522	112
0	14469	227.387107814522	113
0	14597	229.387107814522	114
0	14725	231.387107814522	115
0	14853	233.387107814522	116
0	14981	235.387107814522	117
0	15109	237.387107814522	118
0	15237	239.387107814522	119
0	15365	241.387107814522	120
0	15493	243.387107814522	121
0	15621	245.387107814522	122
0	15749	247.387107814522	123
0	15877	249.387107814522	124
0	16005	251.387107814522	125
0	16133	253.387107814522	126
0	16261	255.387107814522	127
0	16389	257.387107814522	128
0	16517	259.387107814522	129
0	16645	261.387107814522	130
0	16773	263.387107814522	131
0	16901	265.387107814522	132
0	17029	267.387107814522	133
0	17157	269.387107814522	134
0	17285	271.387107814522	135
0	17413	273.387107814522	136
0	17541	275.387107814522	137
0	17669	277.387107814522	138
0	17797	279.387107814522	139
0	17925	281.387107814522	140
0	18053	283.387107814522	141
0	18181	285.387107814522	142
0	18309	287.387107814522	143
0	18437	289.387107814522	144
0	18565	291.387107814522	145
0	18693	293.387107814522	146
0	18821	295.387107814522	147
0	18949	297.387107814522	148
0	19077	299.387107814522	149
0	19185	301.387107814522	150
0	19313	303.387107814522	151
0	19441	305.387107814522	152
0	19569	307.387107814522	153
0	19697	309.387107814522	154
0	19825	311.387107814522	155
0	19953	313.387107814522	156
0	20081	315.387107814522	157
0	20209	317.387107814522	158
0	20337	319.387107814522	159
0	20465	321.387107814522	160
0	20593	323.387107814522	161
0	20721	325.387107814522	162
0	20849	327.387107814522	163
0	20977	329.387107814522	164
0	21105	331.387107814522	165
0	21233	333.387107814522	166
0	21361	335.387107814522	167
0	21489	337.387107814522	168
0	21617	339.387107814522	169
0	21745	341.387107814522	170
0	21873	343.387107814522	171
0	22001	345.387107814522	172
0	22129	347.387107814522	173
0	22257	349.387107814522	174
0	22385	351.387107814522	175
0	22513	353.387107814522	176
0	22641	355.387107814522	177
0	22769	357.387107814522	178
0	22897	359.387107814522	179
0	23025	361.387107814522	180
0	23153	363.387107814522	181
0	23281	365.387107814522	182
0	23409	367.387107814522	183
0	23537	369.387107814522	184
0	23665	371.387107814522	185
0	23793	373.387107814522	186
0	23921	375.387107814522	187
0	24049	377.387107814522	188
0	24177	379.387107814522	189
0	24305	381.387107814522	190
0	24433	383.387107814522	191
0	24561	385.387107814522	192
0	24689	387.387107814522	193
0	24817	389.387107814522	194
0	24945	391.387107814522	195
0	25073	393.387107814522	196
0	25201	395.387107814522	197
0	25329	397.387107814522	198
0	25457	399.387107814522	199
0	25585	401.387107814522	200
0	25713	403.387107814522	201
0	25841	405.387107814522	202
0	25969	407.387107814522	203
0	26097	409.387107814522	204
0	26225	411.387107814522	205
0	26353	413.387107814522	206
0	26481	415.387107814522	207
0	26609	417.387107814522	208
0	26737	419.387107814522	209
0	26865	421.387107814522	210
0	26993	423.387107814522	211
0	27121	425.387107814522	212
0	27249	427.387107814522	213
0	27377	429.387107814522	214
0	27505	431.387107814522	215
0	27633	433.387107814522	216
0	27761	435.387107814522	217
0	27889	437.387107814522	218
0	28017	439.387107814522	219
0	28145	441.387107814522	220
0	28273	443.387107814522	221
0	28401	445.387107814522	222
0	28529	447.387107814522	223
0	28657	449.387107814522	224
0	28785	451.387107814522	225
0	28913	453.387107814522	226
0	29041	455.387107814522	227
0	29169	457.387107814522	228
0	29297	459.387107814522	229
0	29425	461.387107814522	230
0	29553	463.387107814522	231
0	29681	465.387107814522	232
0	29809	467.387107814522	233
0	29937	469.387107814522	234
0	30065	471.387107814522	235
0	30193	473.387107814522	236
0	30321	475.387107814522	237
0	30449	477.387107814522	238
0	30577	479.387107814522	239
0	30705	481.387107814522	240
0	30833	483.387107814522	241
0	30961	485.387107814522	242
0	31089	487.387107814522	243
0	31217	489.387107814522	244
0	31345	491.387107814522	245
0	31473	493.387107814522	246
0	31601	495.387107814522	247
0	31729	497.387107814522	248
0	31857	499.387107814522	249
0	31985	501.387107814522	250
0	32113	503.387107814522	251
0	32241	505.387107814522	252
0	32369	507.387107814522	253
0	32497	509.387107814522	254
0	32625	511.387107814522	255
0	32753	513.387107814522	256
0	32861	515.387107814522	257
0	32989	517.387107814522	258
0	33117	519.387107814522	259
0	33245	521.387107814522	260
0	33373	523.387107814522	261
0	33501	525.387107814522	262
0	33629	527.387107814522	263
0	33757	529.387107814522	264
0	33885	531.387107814522	265
0	34013	533.387107814522	266
0	34141	535.387107814522	267
0	34269	537.387107814522	268
0	34397	539.387107814522	269
0	34525	541.387107814522	270
0	34653	543.387107814522	271
0	34781	545.387107814522	272
0	34909	547.387107814522	273
0	35037	549.387107814522	274
0	35165	551.387107814522	275
0	35293	553.387107814522	276
0	35421	555.387107814522	277
0	35549	557.387107814522	278
0	35677	559.387107814522	279
0	35805	561.387107814522	280
0	35933	563.387107814522	281
0	36061	565.387107814522	282
0	36189	567.387107814522	283
0	36317	569.387107814522	284
0	36445	571.387107814522	285
0	36573	573.387107814522	286
0	36701	575.387107814522	287
0	36829	577.387107814522	288
0	36957	579.387107814522	289
0	37085	581.387107814522	290
0	37213	583.387107814522	291
0	37341	585.387107814522	292
0	37469	587.387107814522	293
0	37597	589.387107814522	294
0	37725	591.387107814522	295
0	37853	593.387107814522	296
0	37981	595.387107814522	297
0	38109	597.387107814522	298
0	38237	599.387107814522	299
0	38365	601.387107814522	300
0	38493	603.387107814522	301
0	38621	605.387107814522	302
0	38749	607.387107814522	303
0	38877	609.387107814522	304
0	39005	611.387107814522	305
0	39133	613.387107814522	306
0	39261	615.387107814522	307
0	39389	617.387107814522	308
0	39517	619.387107814522	309
0	39645	621.387107814522	310
0	39773	623.387107814522	311
0	39901	625.387107814522	312
0	40029	627.387107814522	313
0	40157	629.387107814522	314
0	40285	631.387107814522	315
0	40413	633.387107814522	316
0	40541	635.387107814522	317
0	40669	637.387107814522	318
0	40797	639.387107814522	319
0	40925	641.387107814522	320
0	41053	643.387107814522	321
0	41181	645.387107814522	322
0	41309	647.387107814522	323
0	41437	649.387107814522	324
0	41565	651.387107814522	325
0	41693	653.387107814522	326
0	41821	655.387107814522	327
0	41949	657.387107814522	328
0	42077	659.387107814522	329
0	42205	661.387107814522	330
0	42333	663.387107814522	331
0	42461	665.387107814522	332
0	42589	667.387107814522	333
0	42717	669.387107814522	334
0	42845	671.387107814522	335
0	42973	673.387107814522	336
0	43101	675.387107814522	337
0	43229	677.387107814522	338
0	43357	679.387107814522	339
0	43485	681.387107814522	340
0	43613	683.387107814522	341
0	43741	685.387107814522	342
0	43869	687.387107814522	343
0	43997	689.387107814522	344
0	44125	691.387107814522	345
0	44253	693.387107814522	346
0	44381	695.387107814522	347
0	44509	697.387107814522	348
0	44637	699.387107814522	349
0	44765	701.387107814522	350
0	44893	703.387107814522	351
0	45021	705.387107814522	352
0	45149	707.387107814522	353
0	45277	709.387107814522	354
0	45405	711.387107814522	355
0	45533	713.387107814522	356
0	45661	715.387107814522	357
0	45789	717.387107814522	358
0	45917	719.387107814522	359
0	46045	721.387107814522	360
0	46173	723.387107814522	361
0	46301	725.387107814522	362
0	46429	727.387107814522	363
0	46557	729.387107814522	364
0	46685	731.387107814522	365
0	46813	733.387107814522	366
0	46941	735.387107814522	367
0	47069	737.387107814522	368
0	47197	739.387107814522	369
0	47325	741.387107814522	370
0	47453	743.387107814522	371
0	47581	745.387107814522	372
0	47709	747.387107814522	373
0	47837	749.387107814522	374
0	47965	751.387107814522	375
0	48093	753.387107814522	376
0	48221	755.387107814522	377
0	48349	757.387107814522	378
0	48477	759.387107814522	379
0	48605	761.387107814522	380
0	48733	763.387107814522	381
0	48861	765.387107814522	382
0	48989	767.387107814522	383
0	49117	769.387107814522	384
0	49245	771.387107814522	385
0	49373	773.387107814522	386
0	49501	775.387107814522	387
0	49629	777.387107814522	388
0	49757	779.387107814522	389
0	49885	781.387107814522	390
0	50013	783.387107814522	391
0	50141	785.387107814522	392
0	50269	787.387107814522	393
0	50397	789.387107814522	394
0	50525	791.387107814522	395
0	50653	793.387107814522	396
0	50781	795.387107814522	397
0	50909	797.387107814522	398
0	51037	799.387107814522	399
0	51165	801.387107814522	400
0	51293	803.387107814522	401
0	51421	805.387107814522	402
0	51549	807.387107814522	403
0	51677	809.387107814522	404
0	51805	811.387107814522	405
0	51933	813.387107814522	406
0	52061	815.387107814522	407
0	52189	817.387107814522	408
0	52317	819.387107814522	409
0	52445	821.387107814522	410
0	52573	823.387107814522	411
0	52701	825.387107814522	412
0	52829	827.387107814522	413
0	52957	829.387107814522	414
0	53085	831.387107814522	415
0	53213	833.387107814522	416
0	53341	835.387107814522	417
0	53469	837.387107814522	418
0	53597	839.387107814522	419
0	53725	841.387107814522	420
0	53853	843.387107814522	421
0	53981	845.387107814522	422
0	54109	847.387107814522	423
0	54237	849.387107814522	424
0	54365	851.387107814522	425
0	54493	853.387107814522	426
0	54621	855.387107814522	427
0	54749	857.387107814522	428
0	54877	859.387107814522	429
0	55005	861.387107814522	430
0	55133	863.387107814522	431
0	55261	865.387107814522	432
0	55389	867.387107814522	433
0	55517	869.387107814522	434
0	55645	871.387107814522	435
0	55773	873.387107814522	436
0	55901	875.387107814522	437
0	56029	877.387107814522	438
0	56157	879.387107814522	439
0	56285	881.387107814522	440
0	56413	883.387107814522	441
0	56541	885.387107814522	442
0	56669	887.387107814522	443
0	56797	889.387107814522	444
0	56925	891.387107814522	445
0	57053	893.387107814522	446
0	57181	895.387107814522	447
0	57309	897.387107814522	448
0	57437	899.387107814522	449
1	0	0	0
1	129	2.387107814522	10
1	257	4.387107814522	20
1	385	6.387107814522	30
1	557	9.387107814522	40
1	685	11.387107814522	50
1	813	13.387107814522	60
1	941	15.387107814522	70
1	1069	17.387107814522	80
1	1197	19.387107814522	90
1	1325	21.387107814522	100
1	1453	23.387107814522	110
1	1581	25.387107814522	120
1	1709	27.387107814522	130
1	1837	29.387107814522	140
1	1965	31.387107814522	150
1	2093	33.387107814522	160
1	2221	35.387107814522	170
1	2349	37.387107814522	180
1	2477	39.387107814522	190
1	2605	41.387107814522	200
1	2733	43.387107814522	210
1	2861	45.387107814522	220
1	2989	47.387107814522	230
1	3117	49.387107814522	240
1	3245	51.387107814522	250
1	3373	53.387107814522	260
1	3481	55.387107814522	270
1	3609	57.387107814522	280
1	3737	59.387107814522	290
1	3865	61.387107814522	300
1	3993	63.387107814522	310
1	4121	65.387107814522	320
1	4229	67.387107814522	330
1	4357	69.387107814522	340
1	4485	71.387107814522	350
1	4613	73.387107814522	360
1	4741	75.387107814522	370
1	4869	77.387107814522	380
1	4997	79.387107814522	390
1	5125	81.387107814522	400
1	5253	83.387107814522	410
1	5381	85.387107814522	420
1	5509	87.387107814522	430
1	5637	89.387107814522	440
1	5765	91.387107814522	450
1	5893	93.387107814522	460
1	6021	95.387107814522	470
1	6149	97.387107814522	480
1	6277	99.387107814522	490
1	6405	101.387107814522	500
1	6533	103.387107814522	510
1	6661	105.387107814522	520
1	6789	107.387107814522	530
1	6917	109.387107814522	540
1	7045	111.387107814522	550
1	7173	113.387107814522	560
1	7301	115.387107814522	570
1	7429	117.387107814522	580
1	7557	119.387107814522	590
1	7685	121.387107814522	600
1	7813	123.387107814522	610
1	7941	125.387107814522	620
1	8069	127.387107814522	630
1	8197	129.387107814522	640
1	8325	131.387107814522	650
1	8453	133.387107814522	660
1	8581	135.387107814522	670
1	8709	137.387107814522	680
1	8837	139.387107814522	690
1	8965	141.387107814522	700
1	9093	143.387107814522	710
1	9221	145.387107814522	720
1	9349	147.387107814522	730
1	9477	149.387107814522	740
1	9605	151.387107814522	750
1	9733	153.387107814522	760
1	9861	155.387107814522	770
1	9989	157.387107814522	780
1	10117	159.387107814522	790
1	10245	161.387107814522	800
1	10373	163.387107814522	810
1	10501	165.387107814522	820
1	10629	167.387107814522	830
1	10757	169.387107814522	840
1	10885	171.387107814522	850
1	11013	173.387107814522	860
1	11141	175.387107814522	870
1	11269	177.387107814522	880
1	11397	179.387107814522	890
1	11525	181.387107814522	900
1	11653	183.387107814522	910
1	11781	185.387107814522	920
1	11909	187.387107814522	930
1	12037	189.387107814522	940
1	12165	191.387107814522	950
1	12293	193.387107814522	960
1	12421	195.387107814522	970
1	12549	197.387107814522	980
1	12677	199.387107814522	990
1	12805	201.387107814522	1000
1	12933	203.387107814522	1010
1	13061	205.387107814522	1020
1	13189	207.387107814522	1030
1	13317	209.387107814522	1040
1	13445	211.387107814522	1050
1	13573	213.387107814522	1060
1	13701	215.387107814522	1070
1	13829	217.387107814522	1080
1	13957	219.387107814522	1090
1	14085	221.387107814522	1100
1	14213	223.387107814522	1110
1	14341	225.387107814522	1120
1	14469	227.387107814522	1130
1	14597	229.387107814522	1140
1	14725	231.387107814522	1150
1	14853	233.387107814522	1160
1	14981	235.387107814522	1170
1	15109	237.387107814522	1180
1	15237	239.387107814522	1190
1	15365	241.387107814522	1200
1	15493	243.387107814522	1210
1	15621	245.387107814522	1220
1	15749	247.387107814522	1230
1	15877	249.387107814522	1240
1	16005	251.387107814522	1250
1	16133	253.387107814522	1260
1	16261	255.387107814522	1270
1	16389	257.387107814522	1280
1	16517	259.387107814522	1290
1	16645	261.387107814522	1300
1	16773	263.387107814522	1310
1	16901	265.387107814522	1320
1	17029	267.387107814522	1330
1	17157	269.387107814522	1340
1	17285	271.387107814522	1350
1	17413	273.387107814522	1360
1	17541	275.387107814522	1370
1	17669	277.387107814522	1380
1	17797	279.387107814522	1390
1	17925	281.387107814522	1400
1	18053	283.387107814522	1410
1	18181	285.387107814522	1420
1	18309	287.387107814522	1430
1	18437	289.387107814522	1440
1	18565	291.387107814522	1450
1	18693	293.387107814522	1460
1	18821	295.387107814522	1470
1	18949	297.387107814522	1480
1	19077	299.387107814522	1490
1	19185	301.387107814522	1500
1	19313	303.387107814522	1510
1	19441	305.387107814522	1520
1	19569	307.387107814522	1530
1	19697	309.387107814522	1540
1	19825	311.387107814522	1550
1	19953	313.387107814522	1560
1	20081	315.387107814522	1570
1	20209	317.387107814522	1580
1	20337	319.387107814522	1590
1	20465	321.387107814522	1600
1	20593	323.387107814522	1610
1	20721	325.387107814522	1620
1	20849	327.387107814522	1630
1	20977	329.387107814522	1640
1	21105	331.387107814522	1650
1	21233	333.387107814522	1660
1	21361	335.387107814522	1670
1	21489	337.387107814522	1680
1	21617	339.387107814522	1690
1	21745	341.387107814522	1700
1	21873	343.387107814522	1710
1	22001	345.387107814522	1720
1	22129	347.387107814522	1730
1	22257	349.387107814522	1740
1	22385	351.387107814522	1750
1	22513	353.387107814522	1760
1	22641	355.387107814522	1770
1	22769	357.387107814522	1780
1	22897	359.387107814522	1790
1	23025	361.387107814522	1800
1	23153	363.387107814522	1810
1	23281	365.387107814522	1820
1	23409	367.387107814522	1830
1	23537	369.387107814522	1840
1	23665	371.387107814522	1850
1	23793	373.387107814522	1860
1	23921	375.387107814522	1870
1	24049	377.387107814522	1880
1	24177	379.387107814522	1890
1	24305	381.387107814522	1900
1	24433	383.387107814522	1910
1	24561	385.387107814522	1920
1	24689	387.387107814522	1930
1	24817	389.387107814522	1940
1	24945	391.387107814522	1950
1	25073	393.387107814522	1960
1	25201	395.387107814522	1970
1	25329	397.387107814522	1980
1	25457	399.387107814522	1990
1	25585	401.387107814522	2000
1	25713	403.387107814522	2010
1	25841	405.387107814522	2020
1	25969	407.387107814522	2030
1	26097	409.387107814522	2040
1	26225	411.387107814522	2050
1	26353	413.387107814522	2060
1	26481	415.387107814522	2070
1	26609	417.387107814522	2080
1	26737	419.387107814522	2090
1	26865	421.387107814522	2100
1	26993	423.387107814522	2110
1	27121	425.387107814522	2120
1	27249	427.387107814522	2130
1	27377	429.387107814522	2140
1	27505	431.387107814522	2150
1	27633	433.387107814522	2160
1	27761	435.387107814522	2170
1	27889	437.387107814522	2180
1	28017	439.387107814522	2190
1	28145	441.387107814522	2200
1	28273	443.387107814522	2210
1	28401	445.387107814522	2220
1	28529	447.387107814522	2230
1	28657	449.387107814522	2240
1	28785	451.387107814522	2250
1	28913	453.387107814522	2260
1	29041	455.387107814522	2270
1	29169	457.387107814522	2280
1	29297	459.387107814522	2290
1	29425	461.387107814522	2300
1	29553	463.387107814522	2310
1	29681	465.387107814522	2320
1	29809	467.387107814522	2330
1	29937	469.387107814522	2340
1	30065	471.387107814522	2350
1	30193	473.387107814522	2360
1	30321	475.387107814522	2370
1	30449	477.387107814522	2380
1	30577	479.387107814522	2390
1	30705	481.387107814522	2400
1	30833	483.387107814522	2410
1	30961	485.387107814522	2420
1	31089	487.387107814522	2430
1	31217	489.387107814522	2440
1	31345	491.387107814522	2450
1	31473	493.387107814522	2460
1	31601	495.387107814522	2470
1	31729	497.387107814522	2480
1	31857	499.387107814522	2490
1	31985	501.387107814522	2500
1	32113	503.387107814522	2510
1	32241	505.387107814522	2520
1	32369	507.387107814522	2530
1	32497	509.387107814522	2540
1	32625	511.387107814522	2550
1	32753	513.387107814522	2560
1	32861	515.387107814522	2570
1	32989	517.387107814522	2580
1	33117	519.387107814522	2590
1	33245	521.387107814522	2600
1	33373	523.387107814522	2610
1	33501	525.387107814522	2620
1	33629	527.387107814522	2630
1	33757	529.387107814522	2640
1	33885	531.387107814522	2650
1	34013	533.387107814522	2660
1	34141	535.387107814522	2670
1	34269	537.387107814522	2680
1	34397	539.387107814522	2690
1	34525	541.387107814522	2700
1	34653	543.387107814522	2710
1	34781	545.387107814522	2720
1	34909	547.387107814522	2730
1	35037	549.387107814522	2740
1	35165	551.387107814522	2750
1	35293	553.387107814522	2760
1	35421	555.387107814522	2770
1	35549	557.387107814522	2780
1	35677	559.387107814522	2790
1	35805	561.387107814522	2800
1	35933	563.387107814522	2810
1	36061	565.387107814522	2820
1	36189	567.387107814522	2830
1	36317	569.387107814522	2840
1	36445	571.387107814522	2850
1	36573	573.387107814522	2860
1	36701	575.387107814522	2870
1	36829	577.387107814522	2880
1	36957	579.387107814522	2890
1	37085	581.387107814522	2900
1	37213	583.387107814522	2910
1	37341	585.387107814522	2920
1	37469	587.387107814522	2930
1	37597	589.387107814522	2940
1	37725	591.387107814522	2950
1	37853	593.387107814522	2960
1	37981	595.387107814522	2970
1	38109	597.387107814522	2980
1	38237	599.387107814522	2990
1	38365	601.387107814522	3000
1	38493	603.387107814522	3010
1	38621	605.387107814522	3020
1	38749	607.387107814522	3030
1	38877	609.387107814522	3040
1	39005	611.387107814522	3050
1	39133	613.387107814522	3060
1	39261	615.387107814522	3070
1	39389	617.387107814522	3080
1	39517	619.387107814522	3090
1	39645	621.387107814522	3100
1	39773	623.387107814522	3110
1	39901	625.387107814522	3120
1	40029	627.387107814522	3130
1	40157	629.387107814522	3140
1	40285	631.387107814522	3150
1	40413	633.387107814522	3160
1	40541	635.387107814522	3170
1	40669	637.387107814522	3180
1	40797	639.387107814522	3190
1	40925	641.387107814522	3200
1	41053	643.387107814522	3210
1	41181	645.387107814522	3220
1	41309	647.387107814522	3230
1	41437	649.387107814522	3240
1	41565	651.387107814522	3250
1	41693	653.387107814522	3260
1	41821	655.387107814522	3270
1	41949	657.387107814522	3280
1	42077	659.387107814522	3290
1	42205	661.387107814522	3300
1	42333	663.387107814522	3310
1	42461	665.387107814522	3320
1	42589	667.387107814522	3330
1	42717	669.387107814522	3340
1	42845	671.387107814522	3350
1	42973	673.387107814522	3360
1	43101	675.387107814522	3370
1	43229	677.387107814522	3380
1	43357	679.387107814522	3390
1	43485	681.387107814522	3400
1	43613	683.387107814522	3410
1	43741	685.387107814522	3420
1	43869	687.387107814522	3430
1	43997	689.387107814522	3440
1	44125	691.387107814522	3450
1	44253	693.387107814522	3460
1	44381	695.387107814522	3470
1	44509	697.387107814522	3480
1	44637	699.387107814522	3490
1	44765	701.387107814522	3500
1	44893	703.387107814522	3510
1	45021	705.387107814522	3520
1	45149	707.387107814522	3530
1	45277	709.387107814522	3540
1	45405	711.387107814522	3550
1	45533	713.387107814522	3560
1	45661	715.387107814522	3570
1	45789	717.387107814522	3580
1	45917	719.387107814522	3590
1	46045	721.387107814522	3600
1	46173	723.387107814522	3610
1	46301	725.387107814522	3620
1	46429	727.387107814522	3630
1	46557	729.387107814522	3640
1	46685	731.387107814522	3650
1	46813	733.387107814522	3660
1	46941	735.387107814522	3670
1	47069	737.387107814522	3680
1	47197	739.387107814522	3690
1	47325	741.387107814522	3700
1	47453	743.387107814522	3710
1	47581	745.387107814522	3720
1	47709	747.387107814522	3730
1	47837	749.387107814522	3740
1	47965	751.387107814522	3750
1	48093	753.387107814522	3760
1	48221	755.387107814522	3770
1	48349	757.387107814522	3780
1	48477	759.387107814522	3790
1	48605	761.387107814522	3800
1	48733	763.387107814522	3810
1	48861	765.387107814522	3820
1	48989	767.387107814522	3830
1	49117	769.387107814522	3840
1	49245	771.387107814522	3850
1	49373	773.387107814522	3860
1	49501	775.387107814522	3870
1	49629	777.387107814522	3880
1	49757	779.387107814522	3890
1	49885	781.387107814522	3900
1	50013	783.387107814522	3910
1	50141	785.387107814522	3920
1	50269	787.387107814522	3930
1	50397	789.387107814522	3940
1	50525	791.387107814522	3950
1	50653	793.387107814522	3960
1	50781	795.387107814522	3970
1	50909	797.387107814522	3980
1	51037	799.387107814522	3990
1	51165	801.387107814522	4000
1	51293	803.387107814522	4010
1	51421	805.387107814522	4020
1	51549	807.387107814522	4030
1	51677	809.387107814522	4040
1	51805	811.387107814522	4050
1	51933	813.387107814522	4060
1	52061	815.387107814522	4070
1	52189	817.387107814522	4080
1	52317	819.387107814522	4090
1	52445	821.387107814522	4100
1	52573	823.387107814522	4110
1	52701	825.387107814522	4120
1	52829	827.387107814522	4130
1	52957	829.387107814522	4140
1	53085	831.387107814522	4150
1	53213	833.387107814522	4160
1	53341	835.387107814522	4170
1	53469	837.387107814522	4180
1	53597	839.387107814522	4190
1	53725	841.387107814522	4200
1	53853	843.387107814522	4210
1	53981	845.387107814522	4220
1	54109	847.387107814522	4230
1	54237	849.387107814522	4240
1	54365	851.387107814522	4250
1	54493	853.387107814522	4260
1	54621	855.387107814522	4270
1	54749	857.387107814522	4280
1	54877	859.387107814522	4290
1	55005	861.387107814522	4300
1	55133	863.387107814522	4310
1	55261	865.387107814522	4320
1	55389	867.387107814522	4330
1	55517	869.387107814522	4340
1	55645	871.387107814522	4350
1	55773	873.387107814522	4360
1	55901	875.387107814522	4370
1	56029	877.387107814522	4380
1	56157	879.387107814522	4390
1	56285	881.387107814522	4400
1	56413	883.387107814522	4410
1	56541	885.387107814522	4420
1	56669	887.387107814522	4430
1	56797	889.387107814522	4440
1	56925	891.387107814522	4450
1	57053	893.387107814522	4460
1	57181	895.387107814522	4470
1	57309	897.387107814522	4480
1	57437	899.387107814522	4490

