version 2
run General-1-20190212-16:21:49-6699
attr configname General
attr datetime 20190212-16:21:49
attr experiment General
attr inifile omnetpp.ini
attr iterationvars $0=.7
attr iterationvarsf .7-
attr measurement $0=.7
attr network PasubioSimulation.MCPasubioScenario
attr processid 6699
attr repetition 0
attr replication #0
attr resultdir results
attr runnumber 1
attr seedset 1
param **.debug false
param **.coreDebug false
param *.playgroundSizeX 3000m
param *.playgroundSizeY 3000m
param *.playgroundSizeZ 100m
param *.annotations.draw true
param *.manager.updateInterval 1s
param *.manager.host "\"localhost\""
param *.manager.port 9999
param *.manager.autoShutdown true
param *.manager.launchConfig "xmldoc(\"pasubio.launchd.xml\")"
param *.rsu[0].mobility.x 330
param *.rsu[0].mobility.y 381.49
param *.rsu[0].mobility.z 0
param *.rsu[1].mobility.x 390.79
param *.rsu[1].mobility.y 206.97
param *.rsu[1].mobility.z 0
param *.rsu[2].mobility.x 360.45
param *.rsu[2].mobility.y 294.23
param *.rsu[2].mobility.z 0
param *.rsu[0..1].applType "\"RandomForestApp.VirtualServer\""
param *.rsu[0..1].appl.computationPower 5
param *.rsu[0..1].appl.loadBalancerId 2
param *.rsu[0].appl.id 0
param *.rsu[1].appl.id 1
param *.rsu[0..1].appl.penaltyInterval 10
param *.rsu[0..1].appl.expectedReliability .7
param *.rsu[2].applType "\"RandomForestApp.LoadBalancer\""
param *.rsu[2].appl.id 2
param *.rsu[2].appl.upperBound 1
param *.rsu[2].appl.lowerBound 0
param *.rsu[2].appl.timeOutIntervals 3
param *.rsu[2].appl.expectedComputationWork 10
param *.rsu[2].appl.replicationFactor 2
param *.rsu[2].appl.reputationOn false
param *.rsu[*].appl.headerLength "80 bit"
param *.rsu[*].appl.sendBeacons false
param *.rsu[*].appl.dataOnSch false
param *.rsu[*].appl.beaconInterval 1s
param *.connectionManager.sendDirect true
param *.connectionManager.maxInterfDist 2600m
param *.connectionManager.drawMaxIntfDist false
param *.**.nic.mac1609_4.useServiceChannel false
param *.**.nic.mac1609_4.txPower 20mW
param *.**.nic.mac1609_4.bitrate 6Mbps
param *.**.nic.phy80211p.sensitivity -89dBm
param *.**.nic.phy80211p.useThermalNoise true
param *.**.nic.phy80211p.thermalNoise -110dBm
param *.**.nic.phy80211p.decider "xmldoc(\"config.xml\")"
param *.**.nic.phy80211p.analogueModels "xmldoc(\"config.xml\")"
param *.**.nic.phy80211p.usePropagationDelay true
param *.**.nic.phy80211p.antenna "xmldoc(\"antenna.xml\", \"/root/Antenna[@id='monopole']\")"
param *.node[*].applType "\"RandomForestApp.NoAppCar\""
param *.node[*].appl.headerLength "80 bit"
param *.node[*].appl.sendBeacons false
param *.node[*].appl.dataOnSch false
param *.node[*].appl.beaconInterval 1s
param *.node[*].veinsmobilityType.debug true
param *.node[*].veinsmobility.x -1
param *.node[*].veinsmobility.y -1
param *.node[*].veinsmobility.z 1.895

vector 0 MCPasubioScenario.rsu[2].appl "Task Completed" ETV
vector 1 MCPasubioScenario.rsu[2].appl "Work finished" ETV
0	0	0	0
0	109	2.387107814522	1
0	297	14.387107814522	2
0	381	15.387107814522	3
0	489	17.387107814522	4
0	577	19.387107814522	5
0	645	21.387107814522	6
0	837	34.387107814522	7
0	905	36.387107814522	8
0	973	38.387107814522	9
0	1081	40.387107814522	10
0	1165	41.387107814522	11
0	1325	46.387107814522	12
0	1393	48.387107814522	13
0	1461	50.387107814522	14
0	1593	53.387107814522	15
0	1677	54.387107814522	16
0	1785	56.387107814522	17
0	1913	58.387107814522	18
0	2041	60.387107814522	19
0	2169	62.387107814522	20
0	2297	64.387107814522	21
0	2405	66.387107814522	22
0	2533	68.387107814522	23
0	2661	70.387107814522	24
0	2749	72.387107814522	25
0	2817	74.387107814522	26
0	2885	76.387107814522	27
0	2953	78.387107814522	28
0	3021	80.387107814522	29
0	3129	82.387107814522	30
0	3217	84.387107814522	31
0	3285	86.387107814522	32
0	3353	88.387107814522	33
0	3421	90.387107814522	34
0	3489	92.387107814522	35
0	3625	96.387107814522	36
0	3693	98.387107814522	37
0	3761	100.387107814522	38
0	3829	102.387107814522	39
0	3965	106.387107814522	40
0	4033	108.387107814522	41
0	4101	110.387107814522	42
0	4169	112.387107814522	43
0	4277	114.387107814522	44
0	4361	115.387107814522	45
0	4469	117.387107814522	46
0	4597	119.387107814522	47
0	4725	121.387107814522	48
0	4853	123.387107814522	49
0	4981	125.387107814522	50
0	5109	127.387107814522	51
0	5197	129.387107814522	52
0	5265	131.387107814522	53
0	5333	133.387107814522	54
0	5461	140.387107814522	55
0	5529	142.387107814522	56
0	5617	144.387107814522	57
0	5745	146.387107814522	58
0	5873	148.387107814522	59
0	6001	150.387107814522	60
0	6089	152.387107814522	61
0	6157	154.387107814522	62
0	6225	156.387107814522	63
0	6293	158.387107814522	64
0	6361	160.387107814522	65
0	6469	162.387107814522	66
0	6553	163.387107814522	67
0	6661	165.387107814522	68
0	6789	167.387107814522	69
0	6917	169.387107814522	70
0	7045	171.387107814522	71
0	7133	173.387107814522	72
0	7201	175.387107814522	73
0	7269	177.387107814522	74
0	7337	179.387107814522	75
0	7405	181.387107814522	76
0	7541	185.387107814522	77
0	7609	187.387107814522	78
0	7677	189.387107814522	79
0	7745	191.387107814522	80
0	7853	193.387107814522	81
0	7937	194.387107814522	82
0	8045	196.387107814522	83
0	8173	198.387107814522	84
0	8261	200.387107814522	85
0	8425	211.387107814522	86
0	8513	213.387107814522	87
0	8581	215.387107814522	88
0	8649	217.387107814522	89
0	8841	230.387107814522	90
0	8909	232.387107814522	91
0	9017	234.387107814522	92
0	9101	235.387107814522	93
0	9209	237.387107814522	94
0	9297	239.387107814522	95
0	9365	241.387107814522	96
0	9433	243.387107814522	97
0	9501	245.387107814522	98
0	9569	247.387107814522	99
0	9677	249.387107814522	100
0	9761	250.387107814522	101
0	9869	252.387107814522	102
0	9997	254.387107814522	103
0	10125	256.387107814522	104
0	10253	258.387107814522	105
0	10381	260.387107814522	106
0	10509	262.387107814522	107
0	10597	264.387107814522	108
0	10789	277.387107814522	109
0	10857	279.387107814522	110
0	10925	281.387107814522	111
0	10993	283.387107814522	112
0	11101	285.387107814522	113
0	11185	286.387107814522	114
0	11293	288.387107814522	115
0	11421	290.387107814522	116
0	11549	292.387107814522	117
0	11677	294.387107814522	118
0	11805	296.387107814522	119
0	11933	298.387107814522	120
0	12061	300.387107814522	121
0	12169	302.387107814522	122
0	12297	304.387107814522	123
0	12425	306.387107814522	124
0	12553	308.387107814522	125
0	12641	310.387107814522	126
0	12709	312.387107814522	127
0	12777	314.387107814522	128
0	12845	316.387107814522	129
0	12965	321.387107814522	130
0	13033	323.387107814522	131
0	13101	325.387107814522	132
0	13189	327.387107814522	133
0	13277	329.387107814522	134
0	13345	331.387107814522	135
0	13413	333.387107814522	136
0	13481	335.387107814522	137
0	13549	337.387107814522	138
0	13657	339.387107814522	139
0	13909	352.387107814522	140
0	14037	354.387107814522	141
0	14165	356.387107814522	142
0	14293	358.387107814522	143
0	14421	360.387107814522	144
0	14549	362.387107814522	145
0	14677	364.387107814522	146
0	14805	366.387107814522	147
0	14933	368.387107814522	148
0	15061	370.387107814522	149
0	15149	372.387107814522	150
0	15217	374.387107814522	151
0	15285	376.387107814522	152
0	15353	378.387107814522	153
0	15421	380.387107814522	154
0	15529	382.387107814522	155
0	15781	395.387107814522	156
0	15909	397.387107814522	157
0	16037	399.387107814522	158
0	16165	401.387107814522	159
0	16293	403.387107814522	160
0	16421	405.387107814522	161
0	16549	407.387107814522	162
0	16677	409.387107814522	163
0	16765	411.387107814522	164
0	16833	413.387107814522	165
0	16901	415.387107814522	166
0	16969	417.387107814522	167
0	17089	422.387107814522	168
0	17157	424.387107814522	169
0	17225	426.387107814522	170
0	17313	428.387107814522	171
0	17441	430.387107814522	172
0	17569	432.387107814522	173
0	17697	434.387107814522	174
0	17825	436.387107814522	175
0	17913	438.387107814522	176
0	18077	449.387107814522	177
0	18165	451.387107814522	178
0	18233	453.387107814522	179
0	18301	455.387107814522	180
0	18369	457.387107814522	181
0	18437	459.387107814522	182
0	18573	463.387107814522	183
0	18641	465.387107814522	184
0	18709	467.387107814522	185
0	18777	469.387107814522	186
0	18885	471.387107814522	187
0	18973	473.387107814522	188
0	19137	484.387107814522	189
0	19265	486.387107814522	190
0	19393	488.387107814522	191
0	19481	490.387107814522	192
0	19549	492.387107814522	193
0	19617	494.387107814522	194
0	19745	501.387107814522	195
0	19813	503.387107814522	196
0	19929	507.387107814522	197
0	19997	509.387107814522	198
0	20065	511.387107814522	199
0	20177	514.387107814522	200
0	20305	516.387107814522	201
0	20393	518.387107814522	202
0	20461	520.387107814522	203
0	20529	522.387107814522	204
0	20597	524.387107814522	205
0	20665	526.387107814522	206
0	20801	530.387107814522	207
0	20869	532.387107814522	208
0	20937	534.387107814522	209
0	21005	536.387107814522	210
0	21113	538.387107814522	211
0	21197	539.387107814522	212
0	21305	541.387107814522	213
0	21433	543.387107814522	214
0	21561	545.387107814522	215
0	21689	547.387107814522	216
0	21817	549.387107814522	217
0	21945	551.387107814522	218
0	22033	553.387107814522	219
0	22101	555.387107814522	220
0	22169	557.387107814522	221
0	22237	559.387107814522	222
0	22305	561.387107814522	223
0	22413	563.387107814522	224
0	22477	564.387107814522	225
0	22545	566.387107814522	226
0	22613	568.387107814522	227
0	22681	570.387107814522	228
0	22749	572.387107814522	229
0	22837	574.387107814522	230
0	22965	576.387107814522	231
0	23093	578.387107814522	232
0	23181	580.387107814522	233
0	23249	582.387107814522	234
0	23317	584.387107814522	235
0	23385	586.387107814522	236
0	23453	588.387107814522	237
0	23561	590.387107814522	238
0	23645	591.387107814522	239
0	23805	596.387107814522	240
0	23873	598.387107814522	241
0	23941	600.387107814522	242
0	24057	604.387107814522	243
0	24125	606.387107814522	244
0	24193	608.387107814522	245
0	24313	613.387107814522	246
0	24381	615.387107814522	247
0	24505	621.387107814522	248
0	24573	623.387107814522	249
0	24641	625.387107814522	250
0	24749	627.387107814522	251
0	24833	628.387107814522	252
0	24941	630.387107814522	253
0	25069	632.387107814522	254
0	25197	634.387107814522	255
0	25285	636.387107814522	256
0	25449	647.387107814522	257
0	25577	649.387107814522	258
0	25665	651.387107814522	259
0	25733	653.387107814522	260
0	25801	655.387107814522	261
0	25869	657.387107814522	262
0	25937	659.387107814522	263
0	26045	661.387107814522	264
0	26129	662.387107814522	265
0	26237	664.387107814522	266
0	26365	666.387107814522	267
0	26453	668.387107814522	268
0	26521	670.387107814522	269
0	26589	672.387107814522	270
0	26657	674.387107814522	271
0	26725	676.387107814522	272
0	26833	678.387107814522	273
0	26897	679.387107814522	274
0	26965	681.387107814522	275
0	27033	683.387107814522	276
0	27101	685.387107814522	277
0	27225	691.387107814522	278
0	27293	693.387107814522	279
0	27413	698.387107814522	280
0	27481	700.387107814522	281
0	27549	702.387107814522	282
0	27637	704.387107814522	283
0	27765	706.387107814522	284
0	27893	708.387107814522	285
0	27981	710.387107814522	286
0	28049	712.387107814522	287
0	28185	721.387107814522	288
0	28273	723.387107814522	289
0	28401	725.387107814522	290
0	28529	727.387107814522	291
0	28657	729.387107814522	292
0	28745	731.387107814522	293
0	28813	733.387107814522	294
0	28881	735.387107814522	295
0	28949	737.387107814522	296
0	29017	739.387107814522	297
0	29125	741.387107814522	298
0	29189	742.387107814522	299
0	29257	744.387107814522	300
0	29325	746.387107814522	301
0	29393	748.387107814522	302
0	29461	750.387107814522	303
0	29549	752.387107814522	304
0	29677	754.387107814522	305
0	29805	756.387107814522	306
0	29893	758.387107814522	307
0	29961	760.387107814522	308
0	30029	762.387107814522	309
0	30097	764.387107814522	310
0	30165	766.387107814522	311
0	30273	768.387107814522	312
0	30361	770.387107814522	313
0	30429	772.387107814522	314
0	30497	774.387107814522	315
0	30565	776.387107814522	316
0	30633	778.387107814522	317
0	30741	780.387107814522	318
0	30825	781.387107814522	319
0	30933	783.387107814522	320
0	31021	785.387107814522	321
0	31089	787.387107814522	322
0	31157	789.387107814522	323
0	31225	791.387107814522	324
0	31293	793.387107814522	325
0	31401	795.387107814522	326
0	31489	797.387107814522	327
0	31557	799.387107814522	328
0	31625	801.387107814522	329
0	31693	803.387107814522	330
0	31761	805.387107814522	331
0	31869	807.387107814522	332
0	31953	808.387107814522	333
0	32061	810.387107814522	334
0	32189	812.387107814522	335
0	32317	814.387107814522	336
0	32445	816.387107814522	337
0	32573	818.387107814522	338
0	32701	820.387107814522	339
0	32829	822.387107814522	340
0	32917	824.387107814522	341
0	32985	826.387107814522	342
0	33053	828.387107814522	343
0	33181	835.387107814522	344
0	33249	837.387107814522	345
0	33337	839.387107814522	346
0	33465	841.387107814522	347
0	33593	843.387107814522	348
0	33721	845.387107814522	349
0	33849	847.387107814522	350
0	33937	849.387107814522	351
0	34005	851.387107814522	352
0	34073	853.387107814522	353
0	34141	855.387107814522	354
0	34209	857.387107814522	355
0	34317	859.387107814522	356
0	34401	860.387107814522	357
0	34509	862.387107814522	358
0	34637	864.387107814522	359
0	34765	866.387107814522	360
0	34853	868.387107814522	361
0	35017	879.387107814522	362
0	35145	881.387107814522	363
0	35233	883.387107814522	364
0	35301	885.387107814522	365
0	35369	887.387107814522	366
0	35497	894.387107814522	367
0	35565	896.387107814522	368
0	35653	898.387107814522	369
1	0	0	0
1	109	2.387107814522	10
1	297	14.387107814522	20
1	381	15.387107814522	30
1	489	17.387107814522	40
1	577	19.387107814522	50
1	645	21.387107814522	60
1	837	34.387107814522	70
1	905	36.387107814522	80
1	973	38.387107814522	90
1	1081	40.387107814522	100
1	1165	41.387107814522	110
1	1325	46.387107814522	120
1	1393	48.387107814522	130
1	1461	50.387107814522	140
1	1593	53.387107814522	150
1	1677	54.387107814522	160
1	1785	56.387107814522	170
1	1913	58.387107814522	180
1	2041	60.387107814522	190
1	2169	62.387107814522	200
1	2297	64.387107814522	210
1	2405	66.387107814522	220
1	2533	68.387107814522	230
1	2661	70.387107814522	240
1	2749	72.387107814522	250
1	2817	74.387107814522	260
1	2885	76.387107814522	270
1	2953	78.387107814522	280
1	3021	80.387107814522	290
1	3129	82.387107814522	300
1	3217	84.387107814522	310
1	3285	86.387107814522	320
1	3353	88.387107814522	330
1	3421	90.387107814522	340
1	3489	92.387107814522	350
1	3625	96.387107814522	360
1	3693	98.387107814522	370
1	3761	100.387107814522	380
1	3829	102.387107814522	390
1	3965	106.387107814522	400
1	4033	108.387107814522	410
1	4101	110.387107814522	420
1	4169	112.387107814522	430
1	4277	114.387107814522	440
1	4361	115.387107814522	450
1	4469	117.387107814522	460
1	4597	119.387107814522	470
1	4725	121.387107814522	480
1	4853	123.387107814522	490
1	4981	125.387107814522	500
1	5109	127.387107814522	510
1	5197	129.387107814522	520
1	5265	131.387107814522	530
1	5333	133.387107814522	540
1	5461	140.387107814522	550
1	5529	142.387107814522	560
1	5617	144.387107814522	570
1	5745	146.387107814522	580
1	5873	148.387107814522	590
1	6001	150.387107814522	600
1	6089	152.387107814522	610
1	6157	154.387107814522	620
1	6225	156.387107814522	630
1	6293	158.387107814522	640
1	6361	160.387107814522	650
1	6469	162.387107814522	660
1	6553	163.387107814522	670
1	6661	165.387107814522	680
1	6789	167.387107814522	690
1	6917	169.387107814522	700
1	7045	171.387107814522	710
1	7133	173.387107814522	720
1	7201	175.387107814522	730
1	7269	177.387107814522	740
1	7337	179.387107814522	750
1	7405	181.387107814522	760
1	7541	185.387107814522	770
1	7609	187.387107814522	780
1	7677	189.387107814522	790
1	7745	191.387107814522	800
1	7853	193.387107814522	810
1	7937	194.387107814522	820
1	8045	196.387107814522	830
1	8173	198.387107814522	840
1	8261	200.387107814522	850
1	8425	211.387107814522	860
1	8513	213.387107814522	870
1	8581	215.387107814522	880
1	8649	217.387107814522	890
1	8841	230.387107814522	900
1	8909	232.387107814522	910
1	9017	234.387107814522	920
1	9101	235.387107814522	930
1	9209	237.387107814522	940
1	9297	239.387107814522	950
1	9365	241.387107814522	960
1	9433	243.387107814522	970
1	9501	245.387107814522	980
1	9569	247.387107814522	990
1	9677	249.387107814522	1000
1	9761	250.387107814522	1010
1	9869	252.387107814522	1020
1	9997	254.387107814522	1030
1	10125	256.387107814522	1040
1	10253	258.387107814522	1050
1	10381	260.387107814522	1060
1	10509	262.387107814522	1070
1	10597	264.387107814522	1080
1	10789	277.387107814522	1090
1	10857	279.387107814522	1100
1	10925	281.387107814522	1110
1	10993	283.387107814522	1120
1	11101	285.387107814522	1130
1	11185	286.387107814522	1140
1	11293	288.387107814522	1150
1	11421	290.387107814522	1160
1	11549	292.387107814522	1170
1	11677	294.387107814522	1180
1	11805	296.387107814522	1190
1	11933	298.387107814522	1200
1	12061	300.387107814522	1210
1	12169	302.387107814522	1220
1	12297	304.387107814522	1230
1	12425	306.387107814522	1240
1	12553	308.387107814522	1250
1	12641	310.387107814522	1260
1	12709	312.387107814522	1270
1	12777	314.387107814522	1280
1	12845	316.387107814522	1290
1	12965	321.387107814522	1300
1	13033	323.387107814522	1310
1	13101	325.387107814522	1320
1	13189	327.387107814522	1330
1	13277	329.387107814522	1340
1	13345	331.387107814522	1350
1	13413	333.387107814522	1360
1	13481	335.387107814522	1370
1	13549	337.387107814522	1380
1	13657	339.387107814522	1390
1	13909	352.387107814522	1400
1	14037	354.387107814522	1410
1	14165	356.387107814522	1420
1	14293	358.387107814522	1430
1	14421	360.387107814522	1440
1	14549	362.387107814522	1450
1	14677	364.387107814522	1460
1	14805	366.387107814522	1470
1	14933	368.387107814522	1480
1	15061	370.387107814522	1490
1	15149	372.387107814522	1500
1	15217	374.387107814522	1510
1	15285	376.387107814522	1520
1	15353	378.387107814522	1530
1	15421	380.387107814522	1540
1	15529	382.387107814522	1550
1	15781	395.387107814522	1560
1	15909	397.387107814522	1570
1	16037	399.387107814522	1580
1	16165	401.387107814522	1590
1	16293	403.387107814522	1600
1	16421	405.387107814522	1610
1	16549	407.387107814522	1620
1	16677	409.387107814522	1630
1	16765	411.387107814522	1640
1	16833	413.387107814522	1650
1	16901	415.387107814522	1660
1	16969	417.387107814522	1670
1	17089	422.387107814522	1680
1	17157	424.387107814522	1690
1	17225	426.387107814522	1700
1	17313	428.387107814522	1710
1	17441	430.387107814522	1720
1	17569	432.387107814522	1730
1	17697	434.387107814522	1740
1	17825	436.387107814522	1750
1	17913	438.387107814522	1760
1	18077	449.387107814522	1770
1	18165	451.387107814522	1780
1	18233	453.387107814522	1790
1	18301	455.387107814522	1800
1	18369	457.387107814522	1810
1	18437	459.387107814522	1820
1	18573	463.387107814522	1830
1	18641	465.387107814522	1840
1	18709	467.387107814522	1850
1	18777	469.387107814522	1860
1	18885	471.387107814522	1870
1	18973	473.387107814522	1880
1	19137	484.387107814522	1890
1	19265	486.387107814522	1900
1	19393	488.387107814522	1910
1	19481	490.387107814522	1920
1	19549	492.387107814522	1930
1	19617	494.387107814522	1940
1	19745	501.387107814522	1950
1	19813	503.387107814522	1960
1	19929	507.387107814522	1970
1	19997	509.387107814522	1980
1	20065	511.387107814522	1990
1	20177	514.387107814522	2000
1	20305	516.387107814522	2010
1	20393	518.387107814522	2020
1	20461	520.387107814522	2030
1	20529	522.387107814522	2040
1	20597	524.387107814522	2050
1	20665	526.387107814522	2060
1	20801	530.387107814522	2070
1	20869	532.387107814522	2080
1	20937	534.387107814522	2090
1	21005	536.387107814522	2100
1	21113	538.387107814522	2110
1	21197	539.387107814522	2120
1	21305	541.387107814522	2130
1	21433	543.387107814522	2140
1	21561	545.387107814522	2150
1	21689	547.387107814522	2160
1	21817	549.387107814522	2170
1	21945	551.387107814522	2180
1	22033	553.387107814522	2190
1	22101	555.387107814522	2200
1	22169	557.387107814522	2210
1	22237	559.387107814522	2220
1	22305	561.387107814522	2230
1	22413	563.387107814522	2240
1	22477	564.387107814522	2250
1	22545	566.387107814522	2260
1	22613	568.387107814522	2270
1	22681	570.387107814522	2280
1	22749	572.387107814522	2290
1	22837	574.387107814522	2300
1	22965	576.387107814522	2310
1	23093	578.387107814522	2320
1	23181	580.387107814522	2330
1	23249	582.387107814522	2340
1	23317	584.387107814522	2350
1	23385	586.387107814522	2360
1	23453	588.387107814522	2370
1	23561	590.387107814522	2380
1	23645	591.387107814522	2390
1	23805	596.387107814522	2400
1	23873	598.387107814522	2410
1	23941	600.387107814522	2420
1	24057	604.387107814522	2430
1	24125	606.387107814522	2440
1	24193	608.387107814522	2450
1	24313	613.387107814522	2460
1	24381	615.387107814522	2470
1	24505	621.387107814522	2480
1	24573	623.387107814522	2490
1	24641	625.387107814522	2500
1	24749	627.387107814522	2510
1	24833	628.387107814522	2520
1	24941	630.387107814522	2530
1	25069	632.387107814522	2540
1	25197	634.387107814522	2550
1	25285	636.387107814522	2560
1	25449	647.387107814522	2570
1	25577	649.387107814522	2580
1	25665	651.387107814522	2590
1	25733	653.387107814522	2600
1	25801	655.387107814522	2610
1	25869	657.387107814522	2620
1	25937	659.387107814522	2630
1	26045	661.387107814522	2640
1	26129	662.387107814522	2650
1	26237	664.387107814522	2660
1	26365	666.387107814522	2670
1	26453	668.387107814522	2680
1	26521	670.387107814522	2690
1	26589	672.387107814522	2700
1	26657	674.387107814522	2710
1	26725	676.387107814522	2720
1	26833	678.387107814522	2730
1	26897	679.387107814522	2740
1	26965	681.387107814522	2750
1	27033	683.387107814522	2760
1	27101	685.387107814522	2770
1	27225	691.387107814522	2780
1	27293	693.387107814522	2790
1	27413	698.387107814522	2800
1	27481	700.387107814522	2810
1	27549	702.387107814522	2820
1	27637	704.387107814522	2830
1	27765	706.387107814522	2840
1	27893	708.387107814522	2850
1	27981	710.387107814522	2860
1	28049	712.387107814522	2870
1	28185	721.387107814522	2880
1	28273	723.387107814522	2890
1	28401	725.387107814522	2900
1	28529	727.387107814522	2910
1	28657	729.387107814522	2920
1	28745	731.387107814522	2930
1	28813	733.387107814522	2940
1	28881	735.387107814522	2950
1	28949	737.387107814522	2960
1	29017	739.387107814522	2970
1	29125	741.387107814522	2980
1	29189	742.387107814522	2990
1	29257	744.387107814522	3000
1	29325	746.387107814522	3010
1	29393	748.387107814522	3020
1	29461	750.387107814522	3030
1	29549	752.387107814522	3040
1	29677	754.387107814522	3050
1	29805	756.387107814522	3060
1	29893	758.387107814522	3070
1	29961	760.387107814522	3080
1	30029	762.387107814522	3090
1	30097	764.387107814522	3100
1	30165	766.387107814522	3110
1	30273	768.387107814522	3120
1	30361	770.387107814522	3130
1	30429	772.387107814522	3140
1	30497	774.387107814522	3150
1	30565	776.387107814522	3160
1	30633	778.387107814522	3170
1	30741	780.387107814522	3180
1	30825	781.387107814522	3190
1	30933	783.387107814522	3200
1	31021	785.387107814522	3210
1	31089	787.387107814522	3220
1	31157	789.387107814522	3230
1	31225	791.387107814522	3240
1	31293	793.387107814522	3250
1	31401	795.387107814522	3260
1	31489	797.387107814522	3270
1	31557	799.387107814522	3280
1	31625	801.387107814522	3290
1	31693	803.387107814522	3300
1	31761	805.387107814522	3310
1	31869	807.387107814522	3320
1	31953	808.387107814522	3330
1	32061	810.387107814522	3340
1	32189	812.387107814522	3350
1	32317	814.387107814522	3360
1	32445	816.387107814522	3370
1	32573	818.387107814522	3380
1	32701	820.387107814522	3390
1	32829	822.387107814522	3400
1	32917	824.387107814522	3410
1	32985	826.387107814522	3420
1	33053	828.387107814522	3430
1	33181	835.387107814522	3440
1	33249	837.387107814522	3450
1	33337	839.387107814522	3460
1	33465	841.387107814522	3470
1	33593	843.387107814522	3480
1	33721	845.387107814522	3490
1	33849	847.387107814522	3500
1	33937	849.387107814522	3510
1	34005	851.387107814522	3520
1	34073	853.387107814522	3530
1	34141	855.387107814522	3540
1	34209	857.387107814522	3550
1	34317	859.387107814522	3560
1	34401	860.387107814522	3570
1	34509	862.387107814522	3580
1	34637	864.387107814522	3590
1	34765	866.387107814522	3600
1	34853	868.387107814522	3610
1	35017	879.387107814522	3620
1	35145	881.387107814522	3630
1	35233	883.387107814522	3640
1	35301	885.387107814522	3650
1	35369	887.387107814522	3660
1	35497	894.387107814522	3670
1	35565	896.387107814522	3680
1	35653	898.387107814522	3690

