version 2
run WithoutChannelSwitching-0-20180922-11:08:20-8996
attr configname WithoutChannelSwitching
attr datetime 20180922-11:08:20
attr experiment WithoutChannelSwitching
attr inifile omnetpp.ini
attr iterationvars ""
attr iterationvarsf ""
attr measurement ""
attr network ProvidedSimulation.RSUScenario
attr processid 8996
attr repetition 0
attr replication #0
attr resultdir results
attr runnumber 0
attr seedset 0
param **.debug false
param **.coreDebug false
param *.playgroundSizeX 2500m
param *.playgroundSizeY 2500m
param *.playgroundSizeZ 50m
param *.annotations.draw true
param *.obstacles.debug false
param *.obstacles.obstacles "xmldoc(\"config.xml\", \"//AnalogueModel[@type='SimpleObstacleShadowing']/obstacles\")"
param *.manager.updateInterval 1s
param *.manager.host "\"localhost\""
param *.manager.port 9998
param *.manager.autoShutdown true
param *.manager.launchConfig "xmldoc(\"erlangen.launchd.xml\")"
param *.rsu[0].mobility.x 2000
param *.rsu[0].mobility.y 2000
param *.rsu[0].mobility.z 3
param *.rsu[*].applType "\"MaxNetworkApp.TraCIDemoRSU11p\""
param *.rsu[*].appl.headerLength "80 bit"
param *.rsu[*].appl.sendBeacons false
param *.rsu[*].appl.dataOnSch false
param *.rsu[*].appl.beaconInterval 1s
param *.rsu[*].appl.beaconUserPriority 7
param *.rsu[*].appl.dataUserPriority 5
param *.connectionManager.sendDirect true
param *.connectionManager.maxInterfDist 2600m
param *.connectionManager.drawMaxIntfDist false
param *.**.nic.mac1609_4.useServiceChannel false
param *.**.nic.mac1609_4.txPower 20mW
param *.**.nic.mac1609_4.bitrate 6Mbps
param *.**.nic.phy80211p.sensitivity -89dBm
param *.**.nic.phy80211p.useThermalNoise true
param *.**.nic.phy80211p.thermalNoise -110dBm
param *.**.nic.phy80211p.decider "xmldoc(\"config.xml\")"
param *.**.nic.phy80211p.analogueModels "xmldoc(\"config.xml\")"
param *.**.nic.phy80211p.usePropagationDelay true
param *.**.nic.phy80211p.antenna "xmldoc(\"antenna.xml\", \"/root/Antenna[@id='monopole']\")"
param *.node[*].applType "\"MaxNetworkApp.TraCIDemo11p\""
param *.node[*].appl.headerLength "80 bit"
param *.node[*].appl.sendBeacons false
param *.node[*].appl.dataOnSch false
param *.node[*].appl.beaconInterval 1s
param *.node[*].veinsmobilityType.debug true
param *.node[*].veinsmobility.x -1
param *.node[*].veinsmobility.y -1
param *.node[*].veinsmobility.z 1.895
param *.node[*0].veinsmobility.accidentCount 1
param *.node[*0].veinsmobility.accidentStart 75s
param *.node[*0].veinsmobility.accidentDuration 50s
param *.car[*].applType "\"TraCIDemo11p\""
param *.car[*].appl.dataPriority 2
param *.car[*].veinsmobility.x -1
param *.car[*].veinsmobility.y -1
param *.car[*].veinsmobility.z 1.895

vector 0 RSUScenario.node[0].veinsmobility posx ETV
vector 1 RSUScenario.node[0].veinsmobility posy ETV
vector 2 RSUScenario.node[0].veinsmobility speed ETV
vector 3 RSUScenario.node[0].veinsmobility acceleration ETV
vector 4 RSUScenario.node[0].veinsmobility co2emission ETV
vector 5 RSUScenario.node[1].veinsmobility posx ETV
vector 6 RSUScenario.node[1].veinsmobility posy ETV
vector 7 RSUScenario.node[1].veinsmobility speed ETV
vector 8 RSUScenario.node[1].veinsmobility acceleration ETV
vector 9 RSUScenario.node[1].veinsmobility co2emission ETV
vector 10 RSUScenario.node[2].veinsmobility posx ETV
vector 11 RSUScenario.node[2].veinsmobility posy ETV
vector 12 RSUScenario.node[2].veinsmobility speed ETV
vector 13 RSUScenario.node[2].veinsmobility acceleration ETV
vector 14 RSUScenario.node[2].veinsmobility co2emission ETV
vector 15 RSUScenario.node[3].veinsmobility posx ETV
vector 16 RSUScenario.node[3].veinsmobility posy ETV
vector 17 RSUScenario.node[3].veinsmobility speed ETV
vector 18 RSUScenario.node[3].veinsmobility acceleration ETV
vector 19 RSUScenario.node[3].veinsmobility co2emission ETV
vector 20 RSUScenario.node[4].veinsmobility posx ETV
vector 21 RSUScenario.node[4].veinsmobility posy ETV
vector 22 RSUScenario.node[4].veinsmobility speed ETV
vector 23 RSUScenario.node[4].veinsmobility acceleration ETV
vector 24 RSUScenario.node[4].veinsmobility co2emission ETV
vector 25 RSUScenario.node[5].veinsmobility posx ETV
vector 26 RSUScenario.node[5].veinsmobility posy ETV
vector 27 RSUScenario.node[5].veinsmobility speed ETV
vector 28 RSUScenario.node[5].veinsmobility acceleration ETV
vector 29 RSUScenario.node[5].veinsmobility co2emission ETV
vector 30 RSUScenario.node[6].veinsmobility posx ETV
vector 31 RSUScenario.node[6].veinsmobility posy ETV
vector 32 RSUScenario.node[6].veinsmobility speed ETV
vector 33 RSUScenario.node[6].veinsmobility acceleration ETV
vector 34 RSUScenario.node[6].veinsmobility co2emission ETV
vector 35 RSUScenario.node[7].veinsmobility posx ETV
vector 36 RSUScenario.node[7].veinsmobility posy ETV
vector 37 RSUScenario.node[7].veinsmobility speed ETV
vector 38 RSUScenario.node[7].veinsmobility acceleration ETV
vector 39 RSUScenario.node[7].veinsmobility co2emission ETV
vector 40 RSUScenario.node[8].veinsmobility posx ETV
vector 41 RSUScenario.node[8].veinsmobility posy ETV
vector 42 RSUScenario.node[8].veinsmobility speed ETV
vector 43 RSUScenario.node[8].veinsmobility acceleration ETV
vector 44 RSUScenario.node[8].veinsmobility co2emission ETV
vector 45 RSUScenario.node[9].veinsmobility posx ETV
vector 46 RSUScenario.node[9].veinsmobility posy ETV
vector 47 RSUScenario.node[9].veinsmobility speed ETV
vector 48 RSUScenario.node[9].veinsmobility acceleration ETV
vector 49 RSUScenario.node[9].veinsmobility co2emission ETV
vector 50 RSUScenario.node[10].veinsmobility posx ETV
vector 51 RSUScenario.node[10].veinsmobility posy ETV
vector 52 RSUScenario.node[10].veinsmobility speed ETV
vector 53 RSUScenario.node[10].veinsmobility acceleration ETV
vector 54 RSUScenario.node[10].veinsmobility co2emission ETV
vector 55 RSUScenario.node[11].veinsmobility posx ETV
vector 56 RSUScenario.node[11].veinsmobility posy ETV
vector 57 RSUScenario.node[11].veinsmobility speed ETV
vector 58 RSUScenario.node[11].veinsmobility acceleration ETV
vector 59 RSUScenario.node[11].veinsmobility co2emission ETV
vector 60 RSUScenario.node[12].veinsmobility posx ETV
vector 61 RSUScenario.node[12].veinsmobility posy ETV
vector 62 RSUScenario.node[12].veinsmobility speed ETV
vector 63 RSUScenario.node[12].veinsmobility acceleration ETV
vector 64 RSUScenario.node[12].veinsmobility co2emission ETV
vector 65 RSUScenario.node[13].veinsmobility posx ETV
vector 66 RSUScenario.node[13].veinsmobility posy ETV
vector 67 RSUScenario.node[13].veinsmobility speed ETV
vector 68 RSUScenario.node[13].veinsmobility acceleration ETV
vector 69 RSUScenario.node[13].veinsmobility co2emission ETV
vector 70 RSUScenario.node[14].veinsmobility posx ETV
vector 71 RSUScenario.node[14].veinsmobility posy ETV
vector 72 RSUScenario.node[14].veinsmobility speed ETV
vector 73 RSUScenario.node[14].veinsmobility acceleration ETV
vector 74 RSUScenario.node[14].veinsmobility co2emission ETV
vector 75 RSUScenario.node[15].veinsmobility posx ETV
vector 76 RSUScenario.node[15].veinsmobility posy ETV
vector 77 RSUScenario.node[15].veinsmobility speed ETV
vector 78 RSUScenario.node[15].veinsmobility acceleration ETV
vector 79 RSUScenario.node[15].veinsmobility co2emission ETV
vector 80 RSUScenario.node[16].veinsmobility posx ETV
vector 81 RSUScenario.node[16].veinsmobility posy ETV
vector 82 RSUScenario.node[16].veinsmobility speed ETV
vector 83 RSUScenario.node[16].veinsmobility acceleration ETV
vector 84 RSUScenario.node[16].veinsmobility co2emission ETV
vector 85 RSUScenario.node[17].veinsmobility posx ETV
vector 86 RSUScenario.node[17].veinsmobility posy ETV
vector 87 RSUScenario.node[17].veinsmobility speed ETV
vector 88 RSUScenario.node[17].veinsmobility acceleration ETV
vector 89 RSUScenario.node[17].veinsmobility co2emission ETV
vector 90 RSUScenario.node[18].veinsmobility posx ETV
vector 91 RSUScenario.node[18].veinsmobility posy ETV
vector 92 RSUScenario.node[18].veinsmobility speed ETV
vector 93 RSUScenario.node[18].veinsmobility acceleration ETV
vector 94 RSUScenario.node[18].veinsmobility co2emission ETV
vector 95 RSUScenario.node[19].veinsmobility posx ETV
vector 96 RSUScenario.node[19].veinsmobility posy ETV
vector 97 RSUScenario.node[19].veinsmobility speed ETV
vector 98 RSUScenario.node[19].veinsmobility acceleration ETV
vector 99 RSUScenario.node[19].veinsmobility co2emission ETV
vector 100 RSUScenario.node[20].veinsmobility posx ETV
vector 101 RSUScenario.node[20].veinsmobility posy ETV
vector 102 RSUScenario.node[20].veinsmobility speed ETV
vector 103 RSUScenario.node[20].veinsmobility acceleration ETV
vector 104 RSUScenario.node[20].veinsmobility co2emission ETV
vector 105 RSUScenario.node[21].veinsmobility posx ETV
vector 106 RSUScenario.node[21].veinsmobility posy ETV
vector 107 RSUScenario.node[21].veinsmobility speed ETV
vector 108 RSUScenario.node[21].veinsmobility acceleration ETV
vector 109 RSUScenario.node[21].veinsmobility co2emission ETV
vector 110 RSUScenario.node[22].veinsmobility posx ETV
vector 111 RSUScenario.node[22].veinsmobility posy ETV
vector 112 RSUScenario.node[22].veinsmobility speed ETV
vector 113 RSUScenario.node[22].veinsmobility acceleration ETV
vector 114 RSUScenario.node[22].veinsmobility co2emission ETV
vector 115 RSUScenario.node[23].veinsmobility posx ETV
vector 116 RSUScenario.node[23].veinsmobility posy ETV
vector 117 RSUScenario.node[23].veinsmobility speed ETV
vector 118 RSUScenario.node[23].veinsmobility acceleration ETV
vector 119 RSUScenario.node[23].veinsmobility co2emission ETV
vector 120 RSUScenario.node[24].veinsmobility posx ETV
vector 121 RSUScenario.node[24].veinsmobility posy ETV
vector 122 RSUScenario.node[24].veinsmobility speed ETV
vector 123 RSUScenario.node[24].veinsmobility acceleration ETV
vector 124 RSUScenario.node[24].veinsmobility co2emission ETV
vector 125 RSUScenario.node[25].veinsmobility posx ETV
vector 126 RSUScenario.node[25].veinsmobility posy ETV
vector 127 RSUScenario.node[25].veinsmobility speed ETV
vector 128 RSUScenario.node[25].veinsmobility acceleration ETV
vector 129 RSUScenario.node[25].veinsmobility co2emission ETV
vector 130 RSUScenario.node[26].veinsmobility posx ETV
vector 131 RSUScenario.node[26].veinsmobility posy ETV
vector 132 RSUScenario.node[26].veinsmobility speed ETV
vector 133 RSUScenario.node[26].veinsmobility acceleration ETV
vector 134 RSUScenario.node[26].veinsmobility co2emission ETV
vector 135 RSUScenario.node[27].veinsmobility posx ETV
vector 136 RSUScenario.node[27].veinsmobility posy ETV
vector 137 RSUScenario.node[27].veinsmobility speed ETV
vector 138 RSUScenario.node[27].veinsmobility acceleration ETV
vector 139 RSUScenario.node[27].veinsmobility co2emission ETV
vector 140 RSUScenario.node[28].veinsmobility posx ETV
vector 141 RSUScenario.node[28].veinsmobility posy ETV
vector 142 RSUScenario.node[28].veinsmobility speed ETV
vector 143 RSUScenario.node[28].veinsmobility acceleration ETV
vector 144 RSUScenario.node[28].veinsmobility co2emission ETV
vector 145 RSUScenario.node[29].veinsmobility posx ETV
vector 146 RSUScenario.node[29].veinsmobility posy ETV
vector 147 RSUScenario.node[29].veinsmobility speed ETV
vector 148 RSUScenario.node[29].veinsmobility acceleration ETV
vector 149 RSUScenario.node[29].veinsmobility co2emission ETV
vector 150 RSUScenario.node[30].veinsmobility posx ETV
vector 151 RSUScenario.node[30].veinsmobility posy ETV
vector 152 RSUScenario.node[30].veinsmobility speed ETV
vector 153 RSUScenario.node[30].veinsmobility acceleration ETV
vector 154 RSUScenario.node[30].veinsmobility co2emission ETV
vector 155 RSUScenario.node[31].veinsmobility posx ETV
vector 156 RSUScenario.node[31].veinsmobility posy ETV
vector 157 RSUScenario.node[31].veinsmobility speed ETV
vector 158 RSUScenario.node[31].veinsmobility acceleration ETV
vector 159 RSUScenario.node[31].veinsmobility co2emission ETV
vector 160 RSUScenario.node[32].veinsmobility posx ETV
vector 161 RSUScenario.node[32].veinsmobility posy ETV
vector 162 RSUScenario.node[32].veinsmobility speed ETV
vector 163 RSUScenario.node[32].veinsmobility acceleration ETV
vector 164 RSUScenario.node[32].veinsmobility co2emission ETV
vector 165 RSUScenario.node[33].veinsmobility posx ETV
vector 166 RSUScenario.node[33].veinsmobility posy ETV
vector 167 RSUScenario.node[33].veinsmobility speed ETV
vector 168 RSUScenario.node[33].veinsmobility acceleration ETV
vector 169 RSUScenario.node[33].veinsmobility co2emission ETV
vector 170 RSUScenario.node[34].veinsmobility posx ETV
vector 171 RSUScenario.node[34].veinsmobility posy ETV
0	2	1	2414.9014220152
0	4	2	2414.9014220152
0	16	3	2412.0282535021
0	28	4	2407.434272861
0	47	5	2402.6086066293
0	78	6	2396.4772731521
0	109	7	2388.9936340754
0	151	8	2380.1477414317
0	209	9	2370.4544348472
0	267	10	2360.735065655
0	340	11	2351.0178592684
0	433	12	2341.5298487653
0	526	13	2334.7235384902
0	638	14	2336.8243788907
0	774	15	2347.473535693
0	910	16	2357.7419379568
0	1069	17	2370.3022435491
0	1256	18	2383.9995112187
0	1443	19	2397.5196581341
0	1657	20	2408.4006939746
0	1903	21	2416.1646603449
0	2149	22	2421.2380997778
0	2426	23	2425.4024470274
0	2739	24	2430.5642199855
0	3052	25	2431.857510546
0	3400	26	2433.3910067528
0	3788	27	2435.2086441015
0	4176	28	2437.2654259532
0	4603	29	2438.6622200004
0	5074	30	2439.5314866065
0	5545	31	2440.5417792661
0	6059	32	2441.5518293041
0	6621	33	2442.5624475764
0	7192	34	2443.5735475319
0	7796	35	2444.5849311245
0	8450	36	2445.5950808151
0	9100	37	2446.6046263459
0	9797	38	2447.6140945138
0	10562	39	2448.6233097685
0	11313	40	2449.6332776411
0	12115	41	2450.6439768443
0	12971	42	2449.5656488632
0	13821	43	2448.4523300367
0	14731	44	2447.3397444888
0	15692	45	2446.2263210806
0	16648	46	2445.1152206709
0	17663	47	2444.0012420758
0	18737	48	2442.8904823567
0	19811	49	2441.777872229
0	20936	50	2440.6656682086
0	22122	51	2439.6989606298
0	23315	52	2438.7586376385
0	24564	53	2437.8656483651
0	25851	54	2432.7589399592
0	27148	55	2422.3179143567
0	28520	56	2409.1878704632
0	29959	57	2395.2685581594
0	31402	58	2381.3499362882
0	32918	59	2367.4345339072
0	34506	60	2353.4990511541
0	36094	61	2339.5799515581
0	37697	62	2325.6551645531
0	39393	63	2311.7279255744
0	41085	64	2297.8279693802
0	42838	65	2283.9024435012
0	44655	66	2269.9700077686
0	46470	67	2256.0654755381
0	48379	68	2242.2022168655
0	50407	69	2228.4219174191
0	52435	70	2214.6856643925
0	54539	71	2201.4943822231
0	56750	72	2188.3033135722
0	58950	73	2175.3852950842
0	61232	74	2163.8113479719
0	63577	75	2154.8285947237
0	65824	76	2148.4727012644
0	68297	77	2145.3375848804
0	70876	78	2145.153248784
0	73444	79	2145.153248784
0	76002	80	2145.153248784
0	78601	81	2145.153248784
0	81263	82	2145.153248784
0	83981	83	2145.153248784
0	86866	84	2145.153248784
0	89755	85	2145.153248784
0	92735	86	2145.153248784
0	95829	87	2145.153248784
0	98917	88	2145.153248784
0	102118	89	2145.153248784
0	105423	90	2145.153248784
0	108724	91	2145.153248784
0	112148	92	2145.153248784
0	115540	93	2145.153248784
0	119050	94	2145.153248784
0	122512	95	2145.153248784
0	126349	96	2145.153248784
0	130183	97	2145.153248784
0	134127	98	2145.153248784
0	138186	99	2145.153248784
0	142211	100	2145.153248784
0	146138	101	2145.153248784
0	150341	102	2145.153248784
0	154523	103	2145.153248784
1	2	1	1578.4416120471
1	4	2	1578.4416120471
1	16	3	1579.4966245294
1	28	4	1581.2776015159
1	47	5	1586.1653365986
1	78	6	1592.3755327258
1	109	7	1599.9554281235
1	151	8	1608.9150987137
1	209	9	1618.7330828821
1	267	10	1628.5774648814
1	340	11	1638.4196562562
1	433	12	1648.4360301802
1	526	13	1660.0725704357
1	638	14	1672.8800310632
1	774	15	1681.6922949329
1	910	16	1690.9525972893
1	1069	17	1695.3639500989
1	1256	18	1697.2011958091
1	1443	19	1698.541036698
1	1657	20	1699.5699112993
1	1903	21	1700.3040461661
1	2149	22	1700.7837737445
1	2426	23	1701.0583376894
1	2739	24	1703.8447521525
1	3052	25	1712.0460333815
1	3400	26	1722.1372181661
1	3788	27	1734.0981961433
1	4176	28	1747.6328665474
1	4603	29	1761.4906543829
1	5074	30	1775.4009959176
1	5545	31	1789.2945122393
1	6059	32	1803.1846920336
1	6621	33	1817.0826861728
1	7192	34	1830.9873044016
1	7796	35	1844.8958232021
1	8450	36	1858.787373418
1	9100	37	1872.6706152447
1	9797	38	1886.5527931787
1	10562	39	1900.4314930569
1	11313	40	1914.3205429167
1	12115	41	1928.2196500115
1	12971	42	1942.0989239831
1	13821	43	1955.9945893753
1	14731	44	1969.8811024986
1	15692	45	1983.7780732056
1	16648	46	1997.6460498739
1	17663	47	2011.5499500362
1	18737	48	2025.4136744449
1	19811	49	2039.3004943542
1	20936	50	2053.1822455181
1	22122	51	2067.0851366306
1	23315	52	2080.9781504953
1	24564	53	2094.8620636659
1	25851	54	2107.5958017986
1	27148	55	2116.50443774
1	28520	56	2120.966550488
1	29959	57	2120.4964137897
1	31402	58	2120.0263004107
1	32918	59	2119.5562957739
1	34506	60	2119.0856129043
1	36094	61	2118.6154833902
1	37697	62	2118.1451617796
1	39393	63	2117.6747573502
1	41085	64	2117.2052744217
1	42838	65	2116.7349278545
1	44655	66	2116.2643479006
1	46470	67	2115.7947104117
1	48379	68	2114.7714226404
1	50407	69	2112.8172696698
1	52435	70	2110.6040639561
1	54539	71	2106.1301952414
1	56750	72	2101.6563989418
1	58950	73	2096.5653671324
1	61232	74	2089.751967214
1	63577	75	2084.4639622094
1	65824	76	2080.7223480865
1	68297	77	2078.8767545735
1	70876	78	2078.7682388239
1	73444	79	2078.7682388239
1	76002	80	2078.7682388239
1	78601	81	2078.7682388239
1	81263	82	2078.7682388239
1	83981	83	2078.7682388239
1	86866	84	2078.7682388239
1	89755	85	2078.7682388239
1	92735	86	2078.7682388239
1	95829	87	2078.7682388239
1	98917	88	2078.7682388239
1	102118	89	2078.7682388239
1	105423	90	2078.7682388239
1	108724	91	2078.7682388239
1	112148	92	2078.7682388239
1	115540	93	2078.7682388239
1	119050	94	2078.7682388239
1	122512	95	2078.7682388239
1	126349	96	2078.7682388239
1	130183	97	2078.7682388239
1	134127	98	2078.7682388239
1	138186	99	2078.7682388239
1	142211	100	2078.7682388239
1	146138	101	2078.7682388239
1	150341	102	2078.7682388239
1	154523	103	2078.7682388239
2	4	2	3.9572089270348
2	16	3	5.7922925953529
2	28	4	7.6194012491274
2	47	5	9.5894080545995
2	78	6	11.533503466331
2	109	7	13.45866683106
2	151	8	13.763021058196
2	209	9	13.877787734221
2	267	10	13.81303454956
2	340	11	13.887504883918
2	433	12	13.876970504746
2	526	13	13.864000451695
2	638	14	13.856933657241
2	774	15	13.854439535674
2	910	16	13.767743846299
2	1069	17	13.864735511465
2	1256	18	12.701945721803
2	1443	19	9.4648862359575
2	1657	20	6.5045373958602
2	1903	21	3.9708339981135
2	2149	22	5.203759204257
2	2426	23	7.298666550371
2	2739	24	9.1998458950297
2	3052	25	11.159746339736
2	3400	26	12.858882885278
2	3788	27	13.95041837032
2	4176	28	13.898407651924
2	4603	29	13.910887940275
2	5074	30	13.911852276418
2	5545	31	13.894752860635
2	6059	32	13.874683156386
2	6621	33	13.923188518677
2	7192	34	13.918528157957
2	7796	35	13.895035590874
2	8450	36	13.922574126583
2	9100	37	13.9419489246
2	9797	38	13.948759087052
2	10562	39	13.905708889831
2	11313	40	13.901163716011
2	12115	41	13.949750000604
2	12971	42	13.943335208059
2	13821	43	13.87635670668
2	14731	44	13.984807270386
2	15692	45	13.898623034931
2	16648	46	13.910780882265
2	17663	47	13.889157581951
2	18737	48	13.899232032241
2	19811	49	13.932512850815
2	20936	50	13.914859050941
2	22122	51	13.975468302649
2	23315	52	13.872363908398
2	24564	53	13.9137244428
2	25851	54	13.924771909455
2	27148	55	13.950123941202
2	28520	56	13.915996466407
2	29959	57	13.925941982139
2	31402	58	13.881943564357
2	32918	59	13.992219979041
2	34506	60	13.998597038973
2	36094	61	13.874225773131
2	37697	62	13.871739098215
2	39393	63	13.928694565166
2	41085	64	13.975976315038
2	42838	65	13.898751937284
2	44655	66	13.871158400744
2	46470	67	13.931142031602
2	48379	68	13.871678100268
2	50407	69	13.982209371617
2	52435	70	13.925930872245
2	54539	71	13.946668972634
2	56750	72	13.921497817454
2	58950	73	12.284853764238
2	61232	74	9.0121437214081
2	63577	75	6.1130176202615
2	65824	76	1.6130176202615
2	68297	77	0
2	70876	78	0
2	73444	79	0
2	76002	80	0
2	78601	81	0
2	81263	82	0
2	83981	83	0
2	86866	84	0
2	89755	85	0
2	92735	86	0
2	95829	87	0
2	98917	88	0
2	102118	89	0
2	105423	90	0
2	108724	91	0
2	112148	92	0
2	115540	93	0
2	119050	94	0
2	122512	95	0
2	126349	96	0
2	130183	97	0
2	134127	98	0
2	138186	99	0
2	142211	100	0
2	146138	101	0
2	150341	102	0
2	154523	103	0
3	16	3	1.8350836683181
3	28	4	1.8271086537745
3	47	5	1.9700068054721
3	78	6	1.9440954117314
3	109	7	1.9251633647294
3	151	8	0.3043542271355
3	209	9	0.11476667602547
3	267	10	-0.064753184660804
3	340	11	0.074470334358047
3	433	12	-0.010534379172604
3	526	13	-0.012970053050667
3	638	14	-0.0070667944545857
3	774	15	-0.0024941215664143
3	910	16	-0.086695689375047
3	1069	17	0.096991665165405
3	1256	18	-1.1627897896615
3	1443	19	-3.2370594858455
3	1657	20	-2.9603488400973
3	1903	21	-2.5337033977468
3	2149	22	1.2329252061435
3	2426	23	2.094907346114
3	2739	24	1.9011793446587
3	3052	25	1.9599004447064
3	3400	26	1.6991365455417
3	3788	27	1.0915354850417
3	4176	28	-0.052010718395469
3	4603	29	0.01248028835049
3	5074	30	0.00096433614380587
3	5545	31	-0.017099415783305
3	6059	32	-0.020069704249035
3	6621	33	0.048505362290889
3	7192	34	-0.0046603607200097
3	7796	35	-0.023492567082867
3	8450	36	0.027538535709027
3	9100	37	0.01937479801709
3	9797	38	0.0068101624515826
3	10562	39	-0.043050197220873
3	11313	40	-0.0045451738196416
3	12115	41	0.048586284592748
3	12971	42	-0.0064147925446747
3	13821	43	-0.06697850137949
3	14731	44	0.10845056370599
3	15692	45	-0.086184235455002
3	16648	46	0.012157847334166
3	17663	47	-0.02162330031395
3	18737	48	0.01007445028983
3	19811	49	0.033280818574131
3	20936	50	-0.017653799874243
3	22122	51	0.060609251707794
3	23315	52	-0.10310439425055
3	24564	53	0.04136053440161
3	25851	54	0.011047466655729
3	27148	55	0.025352031746879
3	28520	56	-0.034127474795095
3	29959	57	0.0099455157318147
3	31402	58	-0.043998417782131
3	32918	59	0.11027641468448
3	34506	60	0.0063770599314008
3	36094	61	-0.12437126584118
3	37697	62	-0.002486674915998
3	39393	63	0.056955466950312
3	41085	64	0.047281749872491
3	42838	65	-0.077224377754611
3	44655	66	-0.027593536539934
3	46470	67	0.059983630857896
3	48379	68	-0.05946393133374
3	50407	69	0.11053127134917
3	52435	70	-0.056278499371837
3	54539	71	0.020738100388552
3	56750	72	-0.02517115517985
3	58950	73	-1.6366440532162
3	61232	74	-3.2727100428296
3	63577	75	-2.8991261011466
3	65824	76	-4.5
3	68297	77	-1.6130176202615
3	70876	78	0
3	73444	79	0
3	76002	80	0
3	78601	81	0
3	81263	82	0
3	83981	83	0
3	86866	84	0
3	89755	85	0
3	92735	86	0
3	95829	87	0
3	98917	88	0
3	102118	89	0
3	105423	90	0
3	108724	91	0
3	112148	92	0
3	115540	93	0
3	119050	94	0
3	122512	95	0
3	126349	96	0
3	130183	97	0
3	134127	98	0
3	138186	99	0
3	142211	100	0
3	146138	101	0
3	150341	102	0
3	154523	103	0
4	16	3	3.9690439751639
4	28	4	4.8734986088453
4	47	5	6.2068327255978
4	78	6	7.2118621755177
4	109	7	8.2287933875323
4	151	8	3.0242689444712
4	209	9	2.410214010884
4	267	10	1.8042481683123
4	340	11	2.2766031729043
4	433	12	1.9910577970912
4	526	13	1.9816353748441
4	638	14	2.0006543718409
4	774	15	2.0156733927738
4	910	16	1.7275773004983
4	1069	17	2.3491339177603
4	1256	18	0.973
4	1443	19	0.973
4	1657	20	0.973
4	1903	21	0.973
4	2149	22	2.9202656039732
4	2426	23	5.1829022112917
4	2739	24	5.8409555110412
4	3052	25	7.0478875101329
4	3400	26	7.1923395024802
4	3788	27	5.7035699225295
4	4176	28	1.8542576609033
4	4603	29	2.071579633465
4	5074	30	2.033070591514
4	5545	31	1.9708367886165
4	6059	32	1.958947003716
4	6621	33	2.1937519865362
4	7192	34	2.0148851452489
4	7796	35	1.9494556216079
4	8450	36	2.1233313202265
4	9100	37	2.0980065652139
4	9797	38	2.0564960049267
4	10562	39	1.8849385975403
4	11313	40	2.0135217775437
4	12115	41	2.1970455854856
4	12971	42	2.0114927076469
4	13821	43	1.8022364453996
4	14731	44	2.4028055099799
4	15692	45	1.7398103572212
4	16648	46	2.0704874226364
4	17663	47	1.9551479348163
4	18737	48	2.0622988460067
4	19811	49	2.1436920788903
4	20936	50	1.9709420801269
4	22122	51	2.2404713242546
4	23315	52	1.6811177558643
4	24564	53	2.1687186093148
4	25851	54	2.068228125812
4	27148	55	2.1189750795911
4	28520	56	1.9158044765909
4	29959	57	2.0646522515523
4	31402	58	1.8795950099662
4	32918	59	2.40991582857
4	34506	60	2.060217812421
4	36094	61	1.6101508281289
4	37697	62	2.0174438220444
4	39393	63	2.2227433300183
4	41085	64	2.1956409213675
4	42838	65	1.7698327313004
4	44655	66	1.9334542286895
4	46470	67	2.2331933794582
4	48379	68	1.8269584545957
4	50407	69	2.4094828911751
4	52435	70	1.8423934072781
4	54539	71	2.1030929112895
4	56750	72	1.9463691603324
4	58950	73	0.973
4	61232	74	0.973
4	63577	75	0.973
4	65824	76	0.973
4	68297	77	0.973
4	70876	78	0.973
4	73444	79	0.973
4	76002	80	0.973
4	78601	81	0.973
4	81263	82	0.973
4	83981	83	0.973
4	86866	84	0.973
4	89755	85	0.973
4	92735	86	0.973
4	95829	87	0.973
4	98917	88	0.973
4	102118	89	0.973
4	105423	90	0.973
4	108724	91	0.973
4	112148	92	0.973
4	115540	93	0.973
4	119050	94	0.973
4	122512	95	0.973
4	126349	96	0.973
4	130183	97	0.973
4	134127	98	0.973
4	138186	99	0.973
4	142211	100	0.973
4	146138	101	0.973
4	150341	102	0.973
4	154523	103	0.973
5	28	4	2414.8859801291
5	47	5	2414.8859801291
5	78	6	2411.9954222892
5	109	7	2407.2506839979
5	151	8	2402.2569066116
5	209	9	2395.8698252906
5	267	10	2388.1231925822
5	340	11	2379.0778566878
5	433	12	2369.3658650925
5	526	13	2359.6406075037
5	638	14	2349.9377508366
5	774	15	2340.5696662485
5	910	16	2334.4685549028
5	1069	17	2338.029717051
5	1256	18	2348.6255299923
5	1443	19	2358.9043307323
5	1657	20	2371.8350753159
5	1903	21	2385.3663703802
5	2149	22	2396.8549781273
5	2426	23	2406.0844248855
5	2739	24	2414.3452692438
5	3052	25	2420.0958222281
5	3400	26	2423.9862948015
5	3788	27	2429.4993003103
5	4176	28	2431.427825698
5	4603	29	2432.8362908805
5	5074	30	2434.5436464486
5	5545	31	2436.5335342661
5	6059	32	2438.3299803259
5	6621	33	2439.1886723154
5	7192	34	2440.1890011905
5	7796	35	2441.1999299027
5	8450	36	2442.2109507151
5	9100	37	2443.2206176987
5	9797	38	2444.2293012826
5	10562	39	2445.238706779
5	11313	40	2446.2476373996
5	12115	41	2447.2575439028
5	12971	42	2448.2689044791
5	13821	43	2449.2796033344
5	14731	44	2450.2901292811
5	15692	45	2449.9548820338
5	16648	46	2448.8430623495
5	17663	47	2447.7297087947
5	18737	48	2446.6175303617
5	19811	49	2445.50371616
5	20936	50	2444.3919153415
5	22122	51	2443.2783808481
5	23315	52	2442.1664672778
5	24564	53	2441.0525203367
5	25851	54	2440.0270559463
5	27148	55	2439.0859457215
5	28520	56	2438.5427623577
5	29959	57	2435.2747637217
5	31402	58	2426.4685505354
5	32918	59	2413.9258769645
5	34506	60	2400.1156476981
5	36094	61	2386.1670940989
5	37697	62	2372.2466024841
5	39393	63	2358.318574614
5	41085	64	2344.3775140973
5	42838	65	2330.4489642661
5	44655	66	2316.5211350349
5	46470	67	2302.5907464555
5	48379	68	2288.6602010678
5	50407	69	2274.7169750297
5	52435	70	2260.7981725226
5	54539	71	2246.862371614
5	56750	72	2233.0750424088
5	58950	73	2219.2591332041
5	61232	74	2205.926626337
5	63577	75	2192.7331559004
5	65824	76	2179.5384372135
5	68297	77	2168.8068011735
5	70876	78	2160.9842224129
5	73444	79	2155.6670266984
5	76002	80	2152.4190880489
5	78601	81	2150.7109277087
5	81263	82	2149.9349449468
5	83981	83	2149.5442428981
5	86866	84	2149.462935727
5	89755	85	2149.462935727
5	92735	86	2149.462935727
5	95829	87	2149.462935727
5	98917	88	2149.462935727
5	102118	89	2149.462935727
5	105423	90	2149.462935727
5	108724	91	2149.462935727
5	112148	92	2149.462935727
5	115540	93	2149.462935727
5	119050	94	2149.462935727
5	122512	95	2149.462935727
5	126349	96	2149.462935727
5	130183	97	2149.462935727
5	134127	98	2149.462935727
5	138186	99	2149.462935727
5	142211	100	2149.462935727
5	146138	101	2149.462935727
5	150341	102	2149.462935727
5	154523	103	2149.462935727
6	28	4	1578.4472822268
6	47	5	1578.4472822268
6	78	6	1579.5086799795
6	109	7	1581.463551742
6	151	8	1586.5215602648
6	209	9	1592.9907937236
6	267	10	1600.8370654397
6	340	11	1609.9987445669
6	433	12	1619.8356540762
6	526	13	1629.6860002102
6	638	14	1639.5136572961
6	774	15	1649.6652132459
6	910	16	1661.608180549
6	1069	17	1673.8534141136
6	1256	18	1682.7311922461
6	1443	19	1692.0008722087
6	1657	20	1695.5930600381
6	1903	21	1697.3638825528
6	2149	22	1698.4781867648
6	2426	23	1699.3508925885
6	2739	24	1700.1320105875
6	3052	25	1700.6757637747
6	3400	26	1700.9763333295
6	3788	27	1702.0570003456
6	4176	28	1709.2184885982
6	4603	29	1718.486905667
6	5074	30	1729.7221734524
6	5545	31	1742.8166470975
6	6059	32	1756.6257166937
6	6621	33	1770.5424128035
6	7192	34	1784.4431180377
6	7796	35	1798.3453813354
6	8450	36	1812.2489111917
6	9100	37	1826.1338232355
6	9797	38	1840.0052115899
6	10562	39	1853.8865276687
6	11313	40	1867.7613132671
6	12115	41	1881.6495191753
6	12971	42	1895.5577214556
6	13821	43	1909.4568237681
6	14731	44	1923.3535482474
6	15692	45	1937.2407883173
6	16648	46	1951.1177424677
6	17663	47	1965.0138413142
6	18737	48	1978.8952731136
6	19811	49	1992.7971214326
6	20936	50	2006.673840113
6	22122	51	2020.5721973078
6	23315	52	2034.4503232781
6	24564	53	2048.3538283575
6	25851	54	2062.237618464
6	27148	55	2076.1422634898
6	28520	56	2090.0447951443
6	29959	57	2103.4108257322
6	31402	58	2113.9630808383
6	32918	59	2119.9180992302
6	34506	60	2120.6601283913
6	36094	61	2120.1890040431
6	37697	62	2119.718827513
6	39393	63	2119.2483964385
6	41085	64	2118.7775251754
6	42838	65	2118.3070764719
6	44655	66	2117.8366521066
6	46470	67	2117.3661412979
6	48379	68	2116.8956251917
6	50407	69	2116.4246807871
6	52435	70	2115.9545613071
6	54539	71	2115.4322686028
6	56750	72	2113.4771187576
6	58950	73	2111.517916047
6	61232	74	2107.6334060756
6	63577	75	2103.1587952022
6	65824	76	2098.6837609811
6	68297	77	2092.6927116383
6	70876	78	2088.087683036
6	73444	79	2084.9575338745
6	76002	80	2083.0455236752
6	78601	81	2082.0399566535
6	81263	82	2081.5831478545
6	83981	83	2081.3531477274
6	86866	84	2081.3052834794
6	89755	85	2081.3052834794
6	92735	86	2081.3052834794
6	95829	87	2081.3052834794
6	98917	88	2081.3052834794
6	102118	89	2081.3052834794
6	105423	90	2081.3052834794
6	108724	91	2081.3052834794
6	112148	92	2081.3052834794
6	115540	93	2081.3052834794
6	119050	94	2081.3052834794
6	122512	95	2081.3052834794
6	126349	96	2081.3052834794
6	130183	97	2081.3052834794
6	134127	98	2081.3052834794
6	138186	99	2081.3052834794
6	142211	100	2081.3052834794
6	146138	101	2081.3052834794
6	150341	102	2081.3052834794
6	154523	103	2081.3052834794
7	47	5	4.0425376740037
7	78	6	5.9899797741635
7	109	7	7.995898233327
7	151	8	9.9805223184414
7	209	9	11.797888050693
7	267	10	13.711042579702
7	340	11	13.828882815507
7	433	12	13.877056018973
7	526	13	13.822265241607
7	638	14	13.826240355759
7	774	15	13.808232359637
7	910	16	13.886041114451
7	1069	17	13.779637337967
7	1256	18	13.87089693659
7	1443	19	13.879995662286
7	1657	20	12.980844245236
7	1903	21	10.404319461008
7	2149	22	8.8425697783867
7	2426	23	7.2109338321766
7	2739	24	4.608315968755
7	3052	25	4.3773556644424
7	3400	26	6.6180400394114
7	3788	27	8.4636127357465
7	4176	28	10.244112935267
7	4603	29	12.2148184848
7	5074	30	13.90559046577
7	5545	31	13.958849466594
7	6059	32	13.899495692984
7	6621	33	13.880101194263
7	7192	34	13.957604700155
7	7796	35	13.965432267999
7	8450	36	13.883948068053
7	9100	37	13.901537147078
7	9797	38	13.876915067681
7	10562	39	13.951732696672
7	11313	40	13.902430235415
7	12115	41	13.996044553258
7	12971	42	13.991082411509
7	13821	43	13.975909319944
7	14731	44	13.979870708201
7	15692	45	13.890797829442
7	16648	46	13.93253966168
7	17663	47	13.930827986803
7	18737	48	13.950643362533
7	19811	49	13.976144419545
7	20936	50	13.884250787057
7	22122	51	13.932612366618
7	23315	52	13.986895412421
7	24564	53	13.893358231112
7	25851	54	13.920084255943
7	27148	55	13.966285604062
7	28520	56	13.982772746813
7	29959	57	13.940500979689
7	31402	58	13.901260280323
7	32918	59	13.934687188803
7	34506	60	13.983820120385
7	36094	61	13.973419324872
7	37697	62	13.952749270119
7	39393	63	13.996735759652
7	41085	64	13.959173149294
7	42838	65	13.989684698284
7	44655	66	13.920656501474
7	46470	67	13.975558964037
7	48379	68	13.950499276761
7	50407	69	13.907489486693
7	52435	70	13.89578928089
7	54539	71	13.884069890059
7	56750	72	13.932060745752
7	58950	73	13.981948012542
7	61232	74	13.961519885908
7	63577	75	13.931161227254
7	65824	76	10.782355743709
7	68297	77	7.7437641265813
7	70876	78	4.9848790395759
7	73444	79	2.8788180215146
7	76002	80	1.3624478935399
7	78601	81	0.58108485691988
7	81263	82	0.43167675860343
7	83981	83	0
7	86866	84	0
7	89755	85	0
7	92735	86	0
7	95829	87	0
7	98917	88	0
7	102118	89	0
7	105423	90	0
7	108724	91	0
7	112148	92	0
7	115540	93	0
7	119050	94	0
7	122512	95	0
7	126349	96	0
7	130183	97	0
7	134127	98	0
7	138186	99	0
7	142211	100	0
7	146138	101	0
7	150341	102	0
7	154523	103	0
8	78	6	1.9474421001598
8	109	7	2.0059184591635
8	151	8	1.9846240851143
8	209	9	1.8173657322512
8	267	10	1.9131545290095
8	340	11	0.11784023580519
8	433	12	0.048173203465995
8	526	13	-0.054790777366142
8	638	14	0.0039751141518352
8	774	15	-0.018007996121888
8	910	16	0.077808754814324
8	1069	17	-0.10640377648408
8	1256	18	0.091259598622564
8	1443	19	0.0090987256960933
8	1657	20	-0.89915141704996
8	1903	21	-2.5765247842278
8	2149	22	-1.5617496826214
8	2426	23	-1.6316359462101
8	2739	24	-2.6026178634216
8	3052	25	-0.23096030431261
8	3400	26	2.240684374969
8	3788	27	1.8455726963351
8	4176	28	1.78050019952
8	4603	29	1.970705549533
8	5074	30	1.6907719809701
8	5545	31	0.053259000824763
8	6059	32	-0.0593537736102
8	6621	33	-0.019394498721232
8	7192	34	0.077503505891656
8	7796	35	0.0078275678446502
8	8450	36	-0.08148419994628
8	9100	37	0.017589079025202
8	9797	38	-0.024622079397087
8	10562	39	0.074817628990859
8	11313	40	-0.049302461256739
8	12115	41	0.093614317842293
8	12971	42	-0.0049621417489831
8	13821	43	-0.015173091564794
8	14731	44	0.003961388256867
8	15692	45	-0.089072878758888
8	16648	46	0.041741832238621
8	17663	47	-0.0017116748774431
8	18737	48	0.019815375730396
8	19811	49	0.025501057012008
8	20936	50	-0.091893632488791
8	22122	51	0.048361579561606
8	23315	52	0.05428304580273
8	24564	53	-0.093537181308493
8	25851	54	0.026726024830714
8	27148	55	0.046201348118485
8	28520	56	0.016487142750993
8	29959	57	-0.042271767123601
8	31402	58	-0.039240699366202
8	32918	59	0.03342690848047
8	34506	60	0.049132931581697
8	36094	61	-0.010400795512831
8	37697	62	-0.020670054752847
8	39393	63	0.043986489532982
8	41085	64	-0.037562610358
8	42838	65	0.030511548989454
8	44655	66	-0.069028196809814
8	46470	67	0.054902462563478
8	48379	68	-0.025059687276372
8	50407	69	-0.043009790068027
8	52435	70	-0.011700205802917
8	54539	71	-0.011719390831422
8	56750	72	0.047990855693351
8	58950	73	0.049887266790028
8	61232	74	-0.020428126633632
8	63577	75	-0.03035865865415
8	65824	76	-3.1488054835454
8	68297	77	-3.0385916171276
8	70876	78	-2.7588850870054
8	73444	79	-2.1060610180613
8	76002	80	-1.5163701279747
8	78601	81	-0.78136303662007
8	81263	82	-0.14940809831645
8	83981	83	-0.43167675860343
8	86866	84	0
8	89755	85	0
8	92735	86	0
8	95829	87	0
8	98917	88	0
8	102118	89	0
8	105423	90	0
8	108724	91	0
8	112148	92	0
8	115540	93	0
8	119050	94	0
8	122512	95	0
8	126349	96	0
8	130183	97	0
8	134127	98	0
8	138186	99	0
8	142211	100	0
8	146138	101	0
8	150341	102	0
8	154523	103	0
9	78	6	4.2301091069722
9	109	7	5.4083752898229
9	151	8	6.4569285084612
9	209	9	6.9981297601067
9	267	10	8.3312879690391
9	340	11	2.4141445356829
9	433	12	2.1874061765078
9	526	13	1.8382242624125
9	638	14	2.0343893016141
9	774	15	1.9593955015171
9	910	16	2.2876002045415
9	1069	17	1.6630794257514
9	1256	18	2.3307419132725
9	1443	19	2.0570318190542
9	1657	20	0.973
9	1903	21	0.973
9	2149	22	0.973
9	2426	23	0.973
9	2739	24	0.973
9	3052	25	0.973
9	3400	26	5.0298054635758
9	3788	27	5.3387626171002
9	4176	28	6.0992411196982
9	4603	29	7.6689071873388
9	5074	30	7.6953946644296
9	5545	31	2.2138015462716
9	6059	32	1.8297571526508
9	6621	33	1.9617299658648
9	7192	34	2.2952115578408
9	7796	35	2.0616520584725
9	8450	36	1.754348913972
9	9100	37	2.0877151155648
9	9797	38	1.9439382944776
9	10562	39	2.2854708098026
9	11313	40	1.8636906702153
9	12115	41	2.3542075109855
9	12971	42	2.0212017762597
9	13821	43	1.9852732682006
9	14731	44	2.0501312890771
9	15692	45	1.7295064557081
9	16648	46	2.1721049310558
9	17663	47	2.0260253266059
9	18737	48	2.1004165056056
9	19811	49	2.1222972100305
9	20936	50	1.7195426961875
9	22122	51	2.1943406010272
9	23315	52	2.2204838817958
9	24564	53	1.7147641271474
9	25851	54	2.1203351901188
9	27148	55	2.19090230073
9	28520	56	2.0926411604769
9	29959	57	1.8907404194004
9	31402	58	1.897294422508
9	32918	59	2.1444220061647
9	34506	60	2.2027721979195
9	36094	61	2.0010986474578
9	37697	62	1.9645049360925
9	39393	63	2.186888723854
9	41085	64	1.9083002968928
9	42838	65	2.1406602496428
9	44655	66	1.799153459795
9	46470	67	2.2212608375083
9	48379	68	1.9495279777307
9	50407	69	1.8852368861481
9	52435	70	1.9890193069286
9	54539	71	1.987796202425
9	56750	72	2.1930331348408
9	58950	73	2.2051001228538
9	61232	74	1.9661718581163
9	63577	75	1.9298795222038
9	65824	76	0.973
9	68297	77	0.973
9	70876	78	0.973
9	73444	79	0.973
9	76002	80	0.973
9	78601	81	0.973
9	81263	82	0.973
9	83981	83	0.973
9	86866	84	0.973
9	89755	85	0.973
9	92735	86	0.973
9	95829	87	0.973
9	98917	88	0.973
9	102118	89	0.973
9	105423	90	0.973
9	108724	91	0.973
9	112148	92	0.973
9	115540	93	0.973
9	119050	94	0.973
9	122512	95	0.973
9	126349	96	0.973
9	130183	97	0.973
9	134127	98	0.973
9	138186	99	0.973
9	142211	100	0.973
9	146138	101	0.973
9	150341	102	0.973
9	154523	103	0.973
10	109	7	2414.8643472419
10	151	8	2414.8643472419
10	209	9	2411.8465674153
10	267	10	2407.0751619119
10	340	11	2401.9577723494
10	433	12	2395.5213123296
10	526	13	2387.7087995238
10	638	14	2378.6645003178
10	774	15	2368.959892839
10	910	16	2359.2436881992
10	1069	17	2349.5257989697
10	1256	18	2340.2293134446
10	1443	19	2334.3741925983
10	1657	20	2338.4902559273
10	1903	21	2349.0637835636
10	2149	22	2359.3325193408
10	2426	23	2372.3952800828
10	2739	24	2385.8180993537
10	3052	25	2397.0038011799
10	3400	26	2405.8023876963
10	3788	27	2413.7531771549
10	4176	28	2419.729250594
10	4603	29	2423.5932595561
10	5074	30	2428.8903712623
10	5545	31	2431.2812006058
10	6059	32	2432.6822061189
10	6621	33	2434.3700695642
10	7192	34	2436.3585194757
10	7796	35	2438.2497499143
10	8450	36	2439.1169193694
10	9100	37	2440.1046921196
10	9797	38	2441.115086708
10	10562	39	2442.1261118237
10	11313	40	2443.1377155239
10	12115	41	2444.1476922065
10	12971	42	2445.1579501015
10	13821	43	2446.1680085229
10	14731	44	2447.1787793803
10	15692	45	2448.1881593283
10	16648	46	2449.1992480544
10	17663	47	2450.2085794064
10	18737	48	2450.0444208245
10	19811	49	2448.9305253987
10	20936	50	2447.8184346318
10	22122	51	2446.7052657892
10	23315	52	2445.5928591817
10	24564	53	2444.4805304101
10	25851	54	2443.3682148781
10	27148	55	2442.255736784
10	28520	56	2441.1434947379
10	29959	57	2440.1038394088
10	31402	58	2439.1631091675
10	32918	59	2438.5787487919
10	34506	60	2435.8641543117
10	36094	61	2427.4413532102
10	37697	62	2415.0838110263
10	39393	63	2401.2879985808
10	41085	64	2387.3628280063
10	42838	65	2373.4412519759
10	44655	66	2359.5315468983
10	46470	67	2345.5959753867
10	48379	68	2331.6806919676
10	50407	69	2317.7556696841
10	52435	70	2303.8234686099
10	54539	71	2289.9066709485
10	56750	72	2275.977403403
10	58950	73	2262.0577368392
10	61232	74	2248.1309546534
10	63577	75	2234.3316349497
10	65824	76	2220.5176383586
10	68297	77	2207.1306797217
10	70876	78	2193.9224607782
10	73444	79	2181.3903030875
10	76002	80	2171.9355854638
10	78601	81	2164.967825008
10	81263	82	2160.0057780119
10	83981	83	2156.8622328936
10	86866	84	2155.0851943537
10	89755	85	2154.2757044362
10	92735	86	2153.8778709847
10	95829	87	2153.77262267
10	98917	88	2153.77262267
10	102118	89	2153.77262267
10	105423	90	2153.77262267
10	108724	91	2153.77262267
10	112148	92	2153.77262267
10	115540	93	2153.77262267
10	119050	94	2153.77262267
10	122512	95	2153.77262267
10	126349	96	2153.77262267
10	130183	97	2153.77262267
10	134127	98	2153.77262267
10	138186	99	2153.77262267
10	142211	100	2153.77262267
10	146138	101	2153.77262267
10	150341	102	2153.77262267
10	154523	103	2153.77262267
11	109	7	1578.4552257098
11	151	8	1578.4552257098
11	209	9	1579.5633387128
11	267	10	1581.6413314342
11	340	11	1586.8245420614
11	433	12	1593.34378934
11	526	13	1601.2567885192
11	638	14	1610.4174176231
11	774	15	1620.2468480403
11	910	16	1630.0880247839
11	1069	17	1639.930907785
11	1256	18	1650.1009178087
11	1443	19	1662.1764669651
11	1657	20	1674.2253269516
11	1903	21	1683.1264202939
11	2149	22	1692.387023421
11	2426	23	1695.6767929578
11	2739	24	1697.4176483825
11	3052	25	1698.4922589781
11	3400	26	1699.3242240893
11	3788	27	1700.0760243274
11	4176	28	1700.6411019787
11	4603	29	1700.9535740502
11	5074	30	1701.7146825381
11	5545	31	1708.2536209365
11	6059	32	1717.4729495877
11	6621	33	1728.5799492933
11	7192	34	1741.6649607867
11	7796	35	1755.4703987651
11	8450	36	1769.3869429482
11	9100	37	1783.2837020587
11	9797	38	1797.178620101
11	10562	39	1811.0822091382
11	11313	40	1824.9937548526
11	12115	41	1838.8829258671
11	12971	42	1852.7759641046
11	13821	43	1866.6662591882
11	14731	44	1880.5663516708
11	15692	45	1894.4473164072
11	16648	46	1908.3517802125
11	17663	47	1922.2320766579
11	18737	48	1936.1232278785
11	19811	49	1950.0260899803
11	20936	50	1963.906427593
11	22122	51	1977.8002209924
11	23315	52	1991.6845007064
11	24564	53	2005.567808928
11	25851	54	2019.4509519003
11	27148	55	2033.3361238614
11	28520	56	2047.2183496347
11	29959	57	2061.1031638989
11	31402	58	2075.0021947743
11	32918	59	2088.9022258604
11	34506	60	2102.4303971548
11	36094	61	2113.3453272581
11	37697	62	2119.6553589245
11	39393	63	2120.6997255469
11	41085	64	2120.2293909807
11	42838	65	2119.7591778226
11	44655	66	2119.2893656166
11	46470	67	2118.818679749
11	48379	68	2118.34867913
11	50407	69	2117.8783495724
11	52435	70	2117.4077775441
11	54539	71	2116.9377257805
11	56750	72	2116.4672528347
11	58950	73	2115.9971041707
11	61232	74	2115.5267151715
11	63577	75	2113.6553132925
11	65824	76	2111.6963818055
11	68297	77	2108.0417649215
11	70876	78	2103.5621520421
11	73444	79	2099.3118276615
11	76002	80	2094.5345775485
11	78601	81	2090.4327669851
11	81263	82	2087.5116882669
11	83981	83	2085.6611328907
11	86866	84	2084.6150183603
11	89755	85	2084.1384844277
11	92735	86	2083.9042861564
11	95829	87	2083.8423281349
11	98917	88	2083.8423281349
11	102118	89	2083.8423281349
11	105423	90	2083.8423281349
11	108724	91	2083.8423281349
11	112148	92	2083.8423281349
11	115540	93	2083.8423281349
11	119050	94	2083.8423281349
11	122512	95	2083.8423281349
11	126349	96	2083.8423281349
11	130183	97	2083.8423281349
11	134127	98	2083.8423281349
11	138186	99	2083.8423281349
11	142211	100	2083.8423281349
11	146138	101	2083.8423281349
11	150341	102	2083.8423281349
11	154523	103	2083.8423281349
12	151	8	4.0617275998512
12	209	9	6.1353786575448
12	267	10	8.1828713404717
12	340	11	10.026246972497
12	433	12	11.901434952405
12	526	13	13.729458843144
12	638	14	13.763869230964
12	774	15	13.889992804453
12	910	16	13.826552683001
12	1069	17	13.776342563913
12	1256	18	13.888514430835
12	1443	19	13.828965220305
12	1657	20	13.778496056341
12	1903	21	13.857085145169
12	2149	22	13.766376160912
12	2426	23	12.737810516921
12	2739	24	10.1562103494
12	3052	25	8.1433081963885
12	3400	26	7.5447119894612
12	3788	27	4.8419778733363
12	4176	28	4.047977735176
12	4603	29	6.3017385411745
12	5074	30	8.1665927836222
12	5545	31	10.244112627128
12	6059	32	12.180936530621
12	6621	33	13.907441225059
12	7192	34	13.905419330166
12	7796	35	13.97873735718
12	8450	36	13.953873252473
12	9100	37	13.987689359703
12	9797	38	13.956023419145
12	10562	39	13.987304245315
12	11313	40	13.947425098859
12	12115	41	13.901266286944
12	12971	42	13.959874486474
12	13821	43	13.995451386345
12	14731	44	13.946377406444
12	15692	45	13.91522807166
12	16648	46	13.923620001134
12	17663	47	13.968134914574
12	18737	48	13.94734460603
12	19811	49	13.915738437143
12	20936	50	13.930726964653
12	22122	51	13.88642150227
12	23315	52	13.970134633023
12	24564	53	13.923417213422
12	25851	54	13.885102692018
12	27148	55	13.960453912024
12	28520	56	13.902490299838
12	29959	57	13.959650587267
12	31402	58	13.902877053842
12	32918	59	13.960713054
12	34506	60	13.981804280421
12	36094	61	13.892285811328
12	37697	62	13.96150352573
12	39393	63	13.97851549631
12	41085	64	13.939609162759
12	42838	65	13.873145520629
12	44655	66	13.910493472596
12	46470	67	13.893685072821
12	48379	68	13.974631973985
12	50407	69	13.912472284555
12	52435	70	13.942956796789
12	54539	71	13.90340702411
12	56750	72	13.943396546461
12	58950	73	13.90439619571
12	61232	74	13.941707357548
12	63577	75	13.911673686597
12	65824	76	13.991111218457
12	68297	77	13.963979252474
12	70876	78	12.169467155863
12	73444	79	9.4918842513916
12	76002	80	6.9972765053906
12	78601	81	4.7294589982007
12	81263	82	2.8500011517274
12	83981	83	1.4571949696621
12	86866	84	0.60921061550847
12	89755	85	0.44462530183315
12	92735	86	1.4523532309043e-12
12	95829	87	0
12	98917	88	0
12	102118	89	0
12	105423	90	0
12	108724	91	0
12	112148	92	0
12	115540	93	0
12	119050	94	0
12	122512	95	0
12	126349	96	0
12	130183	97	0
12	134127	98	0
12	138186	99	0
12	142211	100	0
12	146138	101	0
12	150341	102	0
12	154523	103	0
13	209	9	2.0736510576936
13	267	10	2.0474926829268
13	340	11	1.8433756320248
13	433	12	1.8751879799087
13	526	13	1.8280238907388
13	638	14	0.034410387819753
13	774	15	0.12612357348902
13	910	16	-0.063440121451858
13	1069	17	-0.050210119087716
13	1256	18	0.11217186692171
13	1443	19	-0.059549210530239
13	1657	20	-0.050469163963571
13	1903	21	0.078589088828302
13	2149	22	-0.090708984257653
13	2426	23	-1.0285656439904
13	2739	24	-2.5816001675213
13	3052	25	-2.0129021530115
13	3400	26	-0.59859620692737
13	3788	27	-2.7027341161249
13	4176	28	-0.79400013816029
13	4603	29	2.2537608059985
13	5074	30	1.8648542424478
13	5545	31	2.0775198435062
13	6059	32	1.9368239034922
13	6621	33	1.7265046944383
13	7192	34	-0.0020218948926765
13	7796	35	0.073318027013446
13	8450	36	-0.024864104706793
13	9100	37	0.033816107229795
13	9797	38	-0.03166594055714
13	10562	39	0.031280826169532
13	11313	40	-0.039879146455787
13	12115	41	-0.046158811915666
13	12971	42	0.05860819953028
13	13821	43	0.035576899871231
13	14731	44	-0.04907397990115
13	15692	45	-0.03114933478413
13	16648	46	0.0083919294737278
13	17663	47	0.044514913440215
13	18737	48	-0.020790308543946
13	19811	49	-0.031606168886647
13	20936	50	0.01498852750985
13	22122	51	-0.0443054623832
13	23315	52	0.083713130753022
13	24564	53	-0.046717419601046
13	25851	54	-0.038314521403517
13	27148	55	0.075351220006123
13	28520	56	-0.057963612186722
13	29959	57	0.057160287429578
13	31402	58	-0.056773533425295
13	32918	59	0.057836000157986
13	34506	60	0.021091226420832
13	36094	61	-0.089518469092438
13	37697	62	0.069217714401894
13	39393	63	0.017011970579624
13	41085	64	-0.038906333551276
13	42838	65	-0.066463642129674
13	44655	66	0.037347951966803
13	46470	67	-0.016808399774598
13	48379	68	0.080946901163552
13	50407	69	-0.062159689429683
13	52435	70	0.030484512234107
13	54539	71	-0.039549772678875
13	56750	72	0.039989522350952
13	58950	73	-0.039000350751449
13	61232	74	0.037311161838007
13	63577	75	-0.030033670950216
13	65824	76	0.079437531859149
13	68297	77	-0.027131965982262
13	70876	78	-1.7945120966118
13	73444	79	-2.677582904471
13	76002	80	-2.494607746001
13	78601	81	-2.2678175071899
13	81263	82	-1.8794578464732
13	83981	83	-1.3928061820653
13	86866	84	-0.84798435415363
13	89755	85	-0.16458531367532
13	92735	86	-0.4446253018317
13	95829	87	-1.4523532309043e-12
13	98917	88	0
13	102118	89	0
13	105423	90	0
13	108724	91	0
13	112148	92	0
13	115540	93	0
13	119050	94	0
13	122512	95	0
13	126349	96	0
13	130183	97	0
13	134127	98	0
13	138186	99	0
13	142211	100	0
13	146138	101	0
13	150341	102	0
13	154523	103	0
14	209	9	4.4934607714223
14	267	10	5.5931609271493
14	340	11	6.1409699278974
14	433	12	7.2183547368087
14	526	13	8.0599481107884
14	638	14	2.1289879205255
14	774	15	2.4498094552081
14	910	16	1.8097802206707
14	1069	17	1.8494001186336
14	1256	18	2.4029159609423
14	1443	19	1.8229551099466
14	1657	20	1.8487310406807
14	1903	21	2.286722232178
14	2149	22	1.7141531649253
14	2426	23	0.973
14	2739	24	0.973
14	3052	25	0.973
14	3400	26	0.973
14	3788	27	0.973
14	4176	28	0.973
14	4603	29	4.859943388921
14	5074	30	5.2245819475293
14	5545	31	6.8325323108464
14	6059	32	7.5503205599407
14	6621	33	7.8161023756118
14	7192	34	2.0224064116742
14	7796	35	2.2836680490061
14	8450	36	1.9505101035233
14	9100	37	2.1515808882797
14	9797	38	1.9278396813074
14	10562	39	2.1429920090493
14	11313	40	1.8994193906699
14	12115	41	1.8741178806837
14	12971	42	2.2319159732068
14	13821	43	2.1583786869151
14	14731	44	1.8684178979242
14	15692	45	1.9257198933424
14	16648	46	2.0591966959206
14	17663	47	2.1854350053106
14	18737	48	1.963575444549
14	19811	49	1.9242359894757
14	20936	50	2.0820827379912
14	22122	51	1.8789752077659
14	23315	52	2.3176337226932
14	24564	53	1.8742537874068
14	25851	54	1.8989027424592
14	27148	55	2.2883147836028
14	28520	56	1.8346768837701
14	29959	57	2.2270187420758
14	31402	58	1.8386983250962
14	32918	59	2.2294154726941
14	34506	60	2.1080521092778
14	36094	61	1.7281340173471
14	37697	62	2.2678036305498
14	39393	63	2.0939563169341
14	41085	64	1.9019644467829
14	42838	65	1.8036834463438
14	44655	66	2.1549053382361
14	46470	67	1.9717069827147
14	48379	68	2.3088683881628
14	50407	69	1.8214849888471
14	52435	70	2.1354456342454
14	54539	71	1.8964570484068
14	56750	72	2.1674340138474
14	58950	73	1.898389423874
14	61232	74	2.158246083297
14	63577	75	1.9291249234801
14	65824	76	2.305788392307
14	68297	77	1.9438507119712
14	70876	78	0.973
14	73444	79	0.973
14	76002	80	0.973
14	78601	81	0.973
14	81263	82	0.973
14	83981	83	0.973
14	86866	84	0.973
14	89755	85	0.973
14	92735	86	0.973
14	95829	87	0.973
14	98917	88	0.973
14	102118	89	0.973
14	105423	90	0.973
14	108724	91	0.973
14	112148	92	0.973
14	115540	93	0.973
14	119050	94	0.973
14	122512	95	0.973
14	126349	96	0.973
14	130183	97	0.973
14	134127	98	0.973
14	138186	99	0.973
14	142211	100	0.973
14	146138	101	0.973
14	150341	102	0.973
14	154523	103	0.973
15	267	10	2414.8589683208
15	340	11	2414.8589683208
15	433	12	2411.9960360894
15	526	13	2407.3778635573
15	638	14	2402.3636346096
15	774	15	2395.8982874734
15	910	16	2388.0410267571
15	1069	17	2378.8728262685
15	1256	18	2369.1624457003
15	1443	19	2359.4430083804
15	1657	20	2349.7201914137
15	1903	21	2340.3800566439
15	2149	22	2334.4143217347
15	2426	23	2338.2892073892
15	2739	24	2348.8763031391
15	3052	25	2359.1555561594
15	3400	26	2372.1732133172
15	3788	27	2385.4747336943
15	4176	28	2396.7136462486
15	4603	29	2405.5287663507
15	5074	30	2413.361303885
15	5545	31	2419.4787928442
15	6059	32	2423.4445097782
15	6621	33	2428.8289907725
15	7192	34	2431.2955136957
15	7796	35	2432.699838591
15	8450	36	2434.4034018992
15	9100	37	2436.4053414367
15	9797	38	2438.2717484479
15	10562	39	2439.1372851115
15	11313	40	2440.1267673417
15	12115	41	2441.1362745936
15	12971	42	2442.1483538623
15	13821	43	2443.1589390305
15	14731	44	2444.170568311
15	15692	45	2445.1824969529
15	16648	46	2446.1928200761
15	17663	47	2447.2029174984
15	18737	48	2448.2138351245
15	19811	49	2449.2259933385
15	20936	50	2450.2361953038
15	22122	51	2450.0144359811
15	23315	52	2448.9030743723
15	24564	53	2447.7909828143
15	25851	54	2446.6775656822
15	27148	55	2445.5640358903
15	28520	56	2444.4529546523
15	29959	57	2443.3411836637
15	31402	58	2442.2297813016
15	32918	59	2441.1173151165
15	34506	60	2440.0821574653
15	36094	61	2439.1428616694
15	37697	62	2438.5692170367
15	39393	63	2435.705529806
15	41085	64	2427.2048758511
15	42838	65	2414.8043182266
15	44655	66	2401.0206465733
15	46470	67	2387.0955849747
15	48379	68	2373.1557891442
15	50407	69	2359.2450291273
15	52435	70	2345.3368585452
15	54539	71	2331.4229557245
15	56750	72	2317.5114613648
15	58950	73	2303.5826330757
15	61232	74	2289.6356737798
15	63577	75	2275.6871835425
15	65824	76	2261.7738625362
15	68297	77	2247.8361756316
15	70876	78	2234.0072538625
15	73444	79	2220.212318296
15	76002	80	2206.8256031477
15	78601	81	2193.7222016011
15	81263	82	2182.3509531778
15	83981	83	2173.8117225143
15	86866	84	2167.6270367409
15	89755	85	2163.3128339823
15	92735	86	2160.6321868852
15	95829	87	2159.1399358044
15	98917	88	2158.4809086086
15	102118	89	2158.1023764899
15	105423	90	2158.082309613
15	108724	91	2158.082309613
15	112148	92	2158.082309613
15	115540	93	2158.082309613
15	119050	94	2158.082309613
15	122512	95	2158.082309613
15	126349	96	2158.082309613
15	130183	97	2158.082309613
15	134127	98	2158.082309613
15	138186	99	2158.082309613
15	142211	100	2158.082309613
15	146138	101	2158.082309613
15	150341	102	2158.082309613
15	154523	103	2158.082309613
16	267	10	1578.4572008215
16	340	11	1578.4572008215
16	433	12	1579.5084545957
16	526	13	1581.3347363686
16	638	14	1586.4134595059
16	774	15	1592.9619654538
16	910	16	1600.9202881008
16	1069	17	1610.2064121356
16	1256	18	1620.041689897
16	1443	19	1629.8861408997
16	1657	20	1639.7340150196
16	1903	21	1649.9079430513
16	2149	22	1661.9347937321
16	2426	23	1674.0629681665
16	2739	24	1682.9573457511
16	3052	25	1692.2274335911
16	3400	26	1695.6436009901
16	3788	27	1697.3767802063
16	4176	28	1698.4648228921
16	4603	29	1699.2983513642
16	5074	30	1700.0389700923
16	5545	31	1700.617419525
16	6059	32	1700.9449604768
16	6621	33	1701.6845037965
16	7192	34	1708.3478083452
16	7796	35	1717.5889802203
16	8450	36	1728.7992930058
16	9100	37	1741.9730730988
16	9797	38	1755.7871776493
16	10562	39	1769.7149016215
16	11313	40	1783.5872798953
16	12115	41	1797.4699953105
16	12971	42	1811.3880810291
16	13821	43	1825.2856199192
16	14731	44	1839.1975174127
16	15692	45	1853.1135317162
16	16648	46	1867.0074669709
16	17663	47	1880.8982983939
16	18737	48	1894.8004092369
16	19811	49	1908.7195806084
16	20936	50	1922.6118497048
16	22122	51	1936.4974776823
16	23315	52	1950.3687144537
16	24564	53	1964.2490619421
16	25851	54	1978.1459543156
16	27148	55	1992.0442528306
16	28520	56	2005.9119902123
16	29959	57	2019.788336576
16	31402	58	2033.6600820031
16	32918	59	2047.5451053241
16	34506	60	2061.423508659
16	36094	61	2075.3013459956
16	37697	62	2089.2048590863
16	39393	63	2102.694262919
16	41085	64	2113.4954961864
16	42838	65	2119.7187770642
16	44655	66	2120.6906955037
16	46470	67	2120.2203646181
16	48379	68	2119.749536071
16	50407	69	2119.2796882335
16	52435	70	2118.8099278565
16	54539	71	2118.3399738679
16	56750	72	2117.8701012274
16	58950	73	2117.3996431176
16	61232	74	2116.9285726184
16	63577	75	2116.4574504104
16	65824	76	2115.9875160735
16	68297	77	2115.5167587567
16	70876	78	2113.6093135467
16	73444	79	2111.6530850604
16	76002	80	2107.9382971525
16	78601	81	2103.4942334536
16	81263	82	2099.6376354434
16	83981	83	2095.6390298065
16	86866	84	2091.9982029451
16	89755	85	2089.4584999001
16	92735	86	2087.8804452792
16	95829	87	2087.0019806307
16	98917	88	2086.614021726
16	102118	89	2086.3911858443
16	105423	90	2086.3793727905
16	108724	91	2086.3793727905
16	112148	92	2086.3793727905
16	115540	93	2086.3793727905
16	119050	94	2086.3793727905
16	122512	95	2086.3793727905
16	126349	96	2086.3793727905
16	130183	97	2086.3793727905
16	134127	98	2086.3793727905
16	138186	99	2086.3793727905
16	142211	100	2086.3793727905
16	146138	101	2086.3793727905
16	150341	102	2086.3793727905
16	154523	103	2086.3793727905
17	340	11	3.8961603405194
17	433	12	5.9431185399189
17	526	13	8.1424288085645
17	638	14	10.062031823167
17	774	15	12.083120163764
17	910	16	13.873771702084
17	1069	17	13.825241770302
17	1256	18	13.820649462088
17	1443	19	13.884200401348
17	1657	20	13.830441952762
17	1903	21	13.857247671166
17	2149	22	13.774102051274
17	2426	23	13.818229824884
17	2739	24	13.862732506306
17	3052	25	13.831968726097
17	3400	26	12.680198226104
17	3788	27	10.122298760552
17	4176	28	8.0421381900996
17	4603	29	7.613966482372
17	5074	30	4.9749531689683
17	5545	31	4.1331622456349
17	6059	32	6.4759988591527
17	6621	33	8.2334897181331
17	7192	34	10.258088677589
17	7796	35	12.161303491787
17	8450	36	13.984538804872
17	9100	37	13.973529279346
17	9797	38	13.890129968924
17	10562	39	13.90034316293
17	11313	40	13.870257037382
17	12115	41	13.974828972158
17	12971	42	13.970242012145
17	13821	43	13.94603371697
17	14731	44	13.973461244183
17	15692	45	13.913994905758
17	16648	46	13.886887027461
17	17663	47	13.877438676255
17	18737	48	13.925698474394
17	19811	49	13.901878093637
17	20936	50	13.996326631282
17	22122	51	13.961738867112
17	23315	52	13.953224730594
17	24564	53	13.95704034128
17	25851	54	13.951851345866
17	27148	55	13.926129935603
17	28520	56	13.987716653978
17	29959	57	13.870006634651
17	31402	58	13.88925380036
17	32918	59	13.884988515009
17	34506	60	13.874761325421
17	36094	61	13.882354206399
17	37697	62	13.929109180849
17	39393	63	13.891515203749
17	41085	64	13.892359951755
17	42838	65	13.884795026833
17	44655	66	13.984148711371
17	46470	67	13.96594609051
17	48379	68	13.883855219076
17	50407	69	13.877321401711
17	52435	70	13.98026102399
17	54539	71	13.9365859131
17	56750	72	13.918686455546
17	58950	73	13.935213858197
17	61232	74	13.884775436304
17	63577	75	13.916794079717
17	65824	76	13.943595780893
17	68297	77	13.959188628159
17	70876	78	13.890704627903
17	73444	79	13.959511514811
17	76002	80	13.436754290741
17	78601	81	10.865195538397
17	81263	82	8.3956373206254
17	83981	83	6.1718515810308
17	86866	84	4.0275223333984
17	89755	85	2.4734660123089
17	92735	86	1.2176678173177
17	95829	87	0.49158799162175
17	98917	88	0.43211747138703
17	102118	89	0
17	105423	90	0
17	108724	91	0
17	112148	92	0
17	115540	93	0
17	119050	94	0
17	122512	95	0
17	126349	96	0
17	130183	97	0
17	134127	98	0
17	138186	99	0
17	142211	100	0
17	146138	101	0
17	150341	102	0
17	154523	103	0
18	433	12	2.0469581993995
18	526	13	2.1993102686456
18	638	14	1.9196030146023
18	774	15	2.0210883405968
18	910	16	1.7906515383201
18	1069	17	-0.048529931781813
18	1256	18	-0.0045923082134696
18	1443	19	0.063550939259585
18	1657	20	-0.053758448585867
18	1903	21	0.026805718403775
18	2149	22	-0.083145619891583
18	2426	23	0.044127773609944
18	2739	24	0.04450268142158
18	3052	25	-0.030763780209234
18	3400	26	-1.1517704999931
18	3788	27	-2.5578994655512
18	4176	28	-2.0801605704528
18	4603	29	-0.42817170772759
18	5074	30	-2.6390133134036
18	5545	31	-0.8417909233334
18	6059	32	2.3428366135177
18	6621	33	1.7574908589805
18	7192	34	2.0245989594562
18	7796	35	1.9032148141973
18	8450	36	1.8232353130858
18	9100	37	-0.011009525526315
18	9797	38	-0.083399310421663
18	10562	39	0.010213194005191
18	11313	40	-0.030086125547532
18	12115	41	0.10457193477545
18	12971	42	-0.0045869600120927
18	13821	43	-0.02420829517534
18	14731	44	0.027427527213003
18	15692	45	-0.059466338425409
18	16648	46	-0.027107878297102
18	17663	47	-0.0094483512057923
18	18737	48	0.048259798139334
18	19811	49	-0.023820380757098
18	20936	50	0.094448537644929
18	22122	51	-0.034587764169554
18	23315	52	-0.0085141365183521
18	24564	53	0.0038156106858516
18	25851	54	-0.0051889954134818
18	27148	55	-0.025721410263795
18	28520	56	0.061586718375329
18	29959	57	-0.11771001932677
18	31402	58	0.019247165708803
18	32918	59	-0.0042652853508471
18	34506	60	-0.010227189587896
18	36094	61	0.0075928809773185
18	37697	62	0.046754974450451
18	39393	63	-0.037593977099752
18	41085	64	0.00084474800620349
18	42838	65	-0.0075649249227716
18	44655	66	0.099353684538508
18	46470	67	-0.018202620861119
18	48379	68	-0.082090871434193
18	50407	69	-0.0065338173648346
18	52435	70	0.10293962227879
18	54539	71	-0.043675110889598
18	56750	72	-0.017899457553868
18	58950	73	0.0165274026501
18	61232	74	-0.050438421892467
18	63577	75	0.032018643412739
18	65824	76	0.026801701176446
18	68297	77	0.015592847266234
18	70876	78	-0.068484000256285
18	73444	79	0.068806886908133
18	76002	80	-0.52275722407031
18	78601	81	-2.5715587523444
18	81263	82	-2.4695582177712
18	83981	83	-2.2237857395946
18	86866	84	-2.1443292476324
18	89755	85	-1.5540563210895
18	92735	86	-1.2557981949911
18	95829	87	-0.72607982569597
18	98917	88	-0.059470520234726
18	102118	89	-0.43211747138703
18	105423	90	0
18	108724	91	0
18	112148	92	0
18	115540	93	0
18	119050	94	0
18	122512	95	0
18	126349	96	0
18	130183	97	0
18	134127	98	0
18	138186	99	0
18	142211	100	0
18	146138	101	0
18	150341	102	0
18	154523	103	0
19	433	12	4.3479287070716
19	526	13	5.8684224955075
19	638	14	6.3444418059827
19	774	15	7.7413344244095
19	910	16	8.0131483058135
19	1069	17	1.859346589201
19	1256	18	2.0052819924547
19	1443	19	2.2396705737247
19	1657	20	1.8423848291808
19	1903	21	2.1138062272626
19	2149	22	1.7398699978782
19	2426	23	2.1672871780096
19	2739	24	2.173522360813
19	3052	25	1.9191724745649
19	3400	26	0.973
19	3788	27	0.973
19	4176	28	0.973
19	4603	29	0.973
19	5074	30	0.973
19	5545	31	0.973
19	6059	32	5.1039936853489
19	6621	33	5.0460831073471
19	7192	34	6.7097801235723
19	7796	35	7.4408992342029
19	8450	36	8.1820651942236
19	9100	37	1.999059654326
19	9797	38	1.7484452538493
19	10562	39	2.0628794280671
19	11313	40	1.9250366233111
19	12115	41	2.388459945351
19	12971	42	2.0203556302289
19	13821	43	1.9519602777969
19	14731	44	2.1284936499169
19	15692	45	1.8306488560147
19	16648	46	1.9365734116418
19	17663	47	1.994736359502
19	18737	48	2.1932131415564
19	19811	49	1.9490149766543
19	20936	50	2.3570567152869
19	22122	51	1.9185491213892
19	23315	52	2.005428193481
19	24564	53	2.0472832760279
19	25851	54	2.0164711055601
19	27148	55	1.9449666294976
19	28520	56	2.2451997404264
19	29959	57	1.63211510797
19	31402	58	2.0919633454508
19	32918	59	2.0128305419428
19	34506	60	1.9918661394638
19	36094	61	2.0522386893553
19	37697	62	2.1885491259882
19	39393	63	1.9019079323998
19	41085	64	2.030681319425
19	42838	65	2.0017696976337
19	44655	66	2.3720627169918
19	46470	67	1.9740933610069
19	48379	68	1.7523113698108
19	50407	69	2.0044721775133
19	52435	70	2.3836533445922
19	54539	71	1.8856672077803
19	56750	72	1.9704918306701
19	58950	73	2.0877249253829
19	61232	74	1.8583031221121
19	63577	75	2.137729802191
19	65824	76	2.1231398389319
19	68297	77	2.0871254407286
19	70876	78	1.7984235376979
19	73444	79	2.2661845890464
19	76002	80	0.973
19	78601	81	0.973
19	81263	82	0.973
19	83981	83	0.973
19	86866	84	0.973
19	89755	85	0.973
19	92735	86	0.973
19	95829	87	0.973
19	98917	88	1.1246595221781
19	102118	89	0.973
19	105423	90	0.973
19	108724	91	0.973
19	112148	92	0.973
19	115540	93	0.973
19	119050	94	0.973
19	122512	95	0.973
19	126349	96	0.973
19	130183	97	0.973
19	134127	98	0.973
19	138186	99	0.973
19	142211	100	0.973
19	146138	101	0.973
19	150341	102	0.973
19	154523	103	0.973
20	526	13	2414.8682432835
20	638	14	2414.8682432835
20	774	15	2411.9406654211
20	910	16	2407.316995816
20	1069	17	2402.405677264
20	1256	18	2396.0632877132
20	1443	19	2388.36742038
20	1657	20	2379.3216372107
20	1903	21	2369.6082943316
20	2149	22	2359.8989324635
20	2426	23	2350.1810733151
20	2739	24	2340.7916030446
20	3052	25	2334.5230794349
20	3400	26	2337.7766824955
20	3788	27	2348.3842355192
20	4176	28	2358.6399006653
20	4603	29	2371.5057409919
20	5074	30	2384.80878606
20	5545	31	2396.164389991
20	6059	32	2405.0937279091
20	6621	33	2413.0416586228
20	7192	34	2419.2705558947
20	7796	35	2423.2064007508
20	8450	36	2428.384422377
20	9100	37	2431.2020954379
20	9797	38	2432.6103043361
20	10562	39	2434.335863249
20	11313	40	2436.3454675978
20	12115	41	2438.2444278585
20	12971	42	2439.1116204252
20	13821	43	2440.097715595
20	14731	44	2441.1087192404
20	15692	45	2442.1197209386
20	16648	46	2443.1312509598
20	17663	47	2444.1422746459
20	18737	48	2445.1542331104
20	19811	49	2446.1652353873
20	20936	50	2447.1766792656
20	22122	51	2448.1848661075
20	23315	52	2449.1948836456
20	24564	53	2450.2051779295
20	25851	54	2450.0476900677
20	27148	55	2448.9355443643
20	28520	56	2447.8221913716
20	29959	57	2446.7081100194
20	31402	58	2445.5945709335
20	32918	59	2444.4811899832
20	34506	60	2443.3686589557
20	36094	61	2442.2552554642
20	37697	62	2441.1429808773
20	39393	63	2440.1013961596
20	41085	64	2439.1603909601
20	42838	65	2438.5766462086
20	44655	66	2435.8188237924
20	46470	67	2427.368199395
20	48379	68	2414.9854739726
20	50407	69	2401.1890351963
20	52435	70	2387.2620730967
20	54539	71	2373.3424957717
20	56750	72	2359.4198427222
20	58950	73	2345.4780600619
20	61232	74	2331.5577823995
20	63577	75	2317.6391571773
20	65824	76	2303.742326848
20	68297	77	2289.8146329779
20	70876	78	2275.8802072973
20	73444	79	2261.9513716629
20	76002	80	2248.0237897207
20	78601	81	2234.2146746519
20	81263	82	2220.410348313
20	83981	83	2207.0376359797
20	86866	84	2194.3294036633
20	89755	85	2183.8574492867
20	92735	86	2175.8880734114
20	95829	87	2170.3655111468
20	98917	88	2166.6354062256
20	102118	89	2164.3779975424
20	105423	90	2163.1838878427
20	108724	91	2162.675032181
20	112148	92	2162.3919967546
20	115540	93	2162.391996556
20	119050	94	2162.391996556
20	122512	95	2162.391996556
20	126349	96	2162.391996556
20	130183	97	2162.391996556
20	134127	98	2162.391996556
20	138186	99	2162.391996556
20	142211	100	2162.391996556
20	146138	101	2162.391996556
20	150341	102	2162.391996556
20	154523	103	2162.391996556
21	526	13	1578.4537951043
21	638	14	1578.4537951043
21	774	15	1579.5287864162
21	910	16	1581.3963870052
21	1069	17	1586.3708760887
21	1256	18	1592.7948429426
21	1443	19	1600.5896963272
21	1657	20	1609.7518284814
21	1903	21	1619.5901066558
21	2149	22	1629.4243526142
21	2426	23	1639.2672051471
21	2739	24	1649.381099605
21	3052	25	1661.2798126573
21	3400	26	1673.6490734937
21	3788	27	1682.5135868462
21	4176	28	1691.7624025512
21	4603	29	1695.5438349573
21	5074	30	1697.2975175753
21	5545	31	1698.4128870443
21	6059	32	1699.2572155744
21	6621	33	1700.008745498
21	7192	34	1700.5977293309
21	7796	35	1700.9311724268
21	8450	36	1701.4659243356
21	9100	37	1707.7330687083
21	9797	38	1716.9997992963
21	10562	39	1728.3548543463
21	11313	40	1741.5790727939
21	12115	41	1755.3937611617
21	12971	42	1769.3016116759
21	13821	43	1783.1877610879
21	14731	44	1797.0910548642
21	15692	45	1810.9943218641
21	16648	46	1824.9048543479
21	17663	47	1838.808423724
21	18737	48	1852.7248481475
21	19811	49	1866.6281231036
21	20936	50	1880.5374709517
21	22122	51	1894.4020281276
21	23315	52	1908.2917609848
21	24564	53	1922.1852996415
21	25851	54	1936.0824234765
21	27148	55	1949.9634467699
21	28520	56	1963.8595386008
21	29959	57	1977.7647213032
21	31402	58	1991.6631358201
21	32918	59	2005.5595765971
21	34506	60	2019.4454092365
21	36094	61	2033.3421313558
21	37697	62	2047.2247632826
21	39393	63	2061.1392622348
21	41085	64	2075.0423555421
21	42838	65	2088.9689828791
21	44655	66	2102.5058027301
21	46470	67	2113.3917817269
21	48379	68	2119.6776720323
21	50407	69	2120.6963829743
21	52435	70	2120.2259878973
21	54539	71	2119.755842247
21	56750	72	2119.2855927125
21	58950	73	2118.8146970579
21	61232	74	2118.344527754
21	63577	75	2117.8744142624
21	65824	76	2117.4050369123
21	68297	77	2116.9346171189
21	70876	78	2116.4639699534
21	73444	79	2115.9935115958
21	76002	80	2115.5230955835
21	78601	81	2113.6387274181
21	81263	82	2111.6811672477
21	83981	83	2108.0102088172
21	86866	84	2103.7001681207
21	89755	85	2100.1485687792
21	92735	86	2096.8613447957
21	95829	87	2093.6102995882
21	98917	88	2091.4144457178
21	102118	89	2090.0855448693
21	105423	90	2089.3825913435
21	108724	91	2089.0830360502
21	112148	92	2088.9164175633
21	115540	93	2088.916417446
21	119050	94	2088.916417446
21	122512	95	2088.916417446
21	126349	96	2088.916417446
21	130183	97	2088.916417446
21	134127	98	2088.916417446
21	138186	99	2088.916417446
21	142211	100	2088.916417446
21	146138	101	2088.916417446
21	150341	102	2088.916417446
21	154523	103	2088.916417446
22	638	14	3.968383932591
22	774	15	5.8748642683192
22	910	16	7.9362559172441
22	1069	17	9.9305896650581
22	1256	18	11.794895037909
22	1443	19	13.720817502814
22	1657	20	13.824554434547
22	1903	21	13.885779511507
22	2149	22	13.857575394399
22	2426	23	13.77342104964
22	2739	24	13.809109962026
22	3052	25	13.859054342322
22	3400	26	13.784302998006
22	3788	27	13.797210306888
22	4176	28	13.821329568063
22	4603	29	12.894959798787
22	5074	30	10.262728574804
22	5545	31	8.1392749689274
22	6059	32	7.8253933013955
22	6621	33	5.1111134064231
22	7192	34	3.8401488120046
22	7796	35	6.16922661851
22	8450	36	8.3379341680634
22	9100	37	10.271920765839
22	9797	38	12.41594978212
22	10562	39	13.939007919561
22	11313	40	13.991534597357
22	12115	41	13.983658051526
22	12971	42	13.875597592853
22	13821	43	13.929937227769
22	14731	44	13.890324414629
22	15692	45	13.890671101299
22	16648	46	13.871742811098
22	17663	47	13.953656964817
22	18737	48	13.913313797277
22	19811	49	13.964141118235
22	20936	50	13.897392886111
22	22122	51	13.906024401416
22	23315	52	13.938730715832
22	24564	53	13.996569386746
22	25851	54	13.889051586892
22	27148	55	13.929664071444
22	28520	56	13.878918963172
22	29959	57	13.883235844418
22	31402	58	13.949957976581
22	32918	59	13.98058109469
22	34506	60	13.902252215964
22	36094	61	13.932179757708
22	37697	62	13.878725283006
22	39393	63	13.983196509299
22	41085	64	13.898329754393
22	42838	65	13.950246633322
22	44655	66	13.929832368062
22	46470	67	13.922578119142
22	48379	68	13.973063721254
22	50407	69	13.908969515818
22	52435	70	13.981651481919
22	54539	71	13.882119308352
22	56750	72	13.960420284537
22	58950	73	13.914490850545
22	61232	74	13.888696706982
22	63577	75	13.878248010387
22	65824	76	13.979746428677
22	68297	77	13.99277193906
22	70876	78	13.97249246591
22	73444	79	13.999783729354
22	76002	80	13.964709493672
22	78601	81	13.895168980334
22	81263	82	13.956720087822
22	83981	83	12.443457750235
22	86866	84	10.033721920418
22	89755	85	7.6320125376969
22	92735	86	5.3871826318921
22	95829	87	3.5264532994337
22	98917	88	2.0025013112146
22	102118	89	0.93010240158811
22	105423	90	0.43372892373009
22	108724	91	0.00011133288773845
22	112148	92	0
22	115540	93	0
22	119050	94	0
22	122512	95	0
22	126349	96	0
22	130183	97	0
22	134127	98	0
22	138186	99	0
22	142211	100	0
22	146138	101	0
22	150341	102	0
22	154523	103	0
23	774	15	1.9064803357283
23	910	16	2.0613916489249
23	1069	17	1.9943337478139
23	1256	18	1.8643053728505
23	1443	19	1.9259224649053
23	1657	20	0.10373693173285
23	1903	21	0.061225076960399
23	2149	22	-0.02820411710767
23	2426	23	-0.084154344759881
23	2739	24	0.03568891238654
23	3052	25	0.049944380295928
23	3400	26	-0.074751344316173
23	3788	27	0.012907308882568
23	4176	28	0.024119261174928
23	4603	29	-0.92636976927622
23	5074	30	-2.6322312239828
23	5545	31	-2.123453605877
23	6059	32	-0.31388166753188
23	6621	33	-2.7142798949724
23	7192	34	-1.2709645944185
23	7796	35	2.3290778065054
23	8450	36	2.1687075495534
23	9100	37	1.9339865977759
23	9797	38	2.1440290162805
23	10562	39	1.5230581374413
23	11313	40	0.052526677795687
23	12115	41	-0.0078765458310954
23	12971	42	-0.1080604586727
23	13821	43	0.054339634915813
23	14731	44	-0.039612813140264
23	15692	45	0.00034668667009008
23	16648	46	-0.018928290200419
23	17663	47	0.081914153718389
23	18737	48	-0.040343167539685
23	19811	49	0.050827320958488
23	20936	50	-0.066748232124374
23	22122	51	0.0086315153050229
23	23315	52	0.032706314416137
23	24564	53	0.057838670914061
23	25851	54	-0.10751779985381
23	27148	55	0.040612484551966
23	28520	56	-0.050745108271949
23	29959	57	0.004316881245467
23	31402	58	0.066722132163122
23	32918	59	0.030623118109069
23	34506	60	-0.078328878725879
23	36094	61	0.029927541743964
23	37697	62	-0.053454474702011
23	39393	63	0.10447122629266
23	41085	64	-0.084866754906253
23	42838	65	0.051916878928896
23	44655	66	-0.02041426525917
23	46470	67	-0.0072542489203613
23	48379	68	0.050485602112021
23	50407	69	-0.064094205435831
23	52435	70	0.072681966100355
23	54539	71	-0.099532173566987
23	56750	72	0.078300976185128
23	58950	73	-0.045929433992132
23	61232	74	-0.025794143562671
23	63577	75	-0.010448696594686
23	65824	76	0.1014984182897
23	68297	77	0.013025510383304
23	70876	78	-0.020279473150149
23	73444	79	0.027291263444349
23	76002	80	-0.035074235682842
23	78601	81	-0.069540513337124
23	81263	82	0.061551107487176
23	83981	83	-1.5132623375867
23	86866	84	-2.4097358298168
23	89755	85	-2.4017093827212
23	92735	86	-2.2448299058048
23	95829	87	-1.8607293324583
23	98917	88	-1.5239519882192
23	102118	89	-1.0723989096265
23	105423	90	-0.49637347785802
23	108724	91	-0.43361759084235
23	112148	92	-0.00011133288773845
23	115540	93	0
23	119050	94	0
23	122512	95	0
23	126349	96	0
23	130183	97	0
23	134127	98	0
23	138186	99	0
23	142211	100	0
23	146138	101	0
23	150341	102	0
23	154523	103	0
24	774	15	4.111410160151
24	910	16	5.4817166771151
24	1069	17	6.4525035669608
24	1256	18	7.1299882570681
24	1443	19	8.3789960217513
24	1657	20	2.3665952557696
24	1903	21	2.2320718720702
24	2149	22	1.9301265852709
24	2426	23	1.7364666312896
24	2739	24	2.1381834744899
24	3052	25	2.1912850834915
24	3400	26	1.7685803734202
24	3788	27	2.0611270188273
24	4176	28	2.1009865790682
24	4603	29	0.973
24	5074	30	0.973
24	5545	31	0.973
24	6059	32	0.973
24	6621	33	0.973
24	7192	34	0.973
24	7796	35	4.8921284782847
24	8450	36	5.9236628664753
24	9100	37	6.4932864929795
24	9797	38	8.3012154823685
24	10562	39	7.149017370699
24	11313	40	2.2150975712795
24	12115	41	2.0106282275912
24	12971	42	1.664792725858
24	13821	43	2.2141055045994
24	14731	44	1.8950394079559
24	15692	45	2.0288418494613
24	16648	46	1.9624783970012
24	17663	47	2.3095665674818
24	18737	48	1.8947112877794
24	19811	49	2.2062271199542
24	20936	50	1.80480717102
24	22122	51	2.0581710573408
24	23315	52	2.1424466540061
24	24564	53	2.2335957087998
24	25851	54	1.6676263617373
24	27148	55	2.1679913442619
24	28520	56	1.8567532149018
24	29959	57	2.0413688879534
24	31402	58	2.2580408987826
24	32918	59	2.1400366155187
24	34506	60	1.7664233114445
24	36094	61	2.1323962722862
24	37697	62	1.8476736861362
24	39393	63	2.3891882427963
24	41085	64	1.7441994982571
24	42838	65	2.2082996319936
24	44655	66	1.9631378931084
24	46470	67	2.0065900856657
24	48379	68	2.206098595123
24	50407	69	1.8146960243525
24	52435	70	2.2818747052243
24	54539	71	1.6938177904823
24	56750	72	2.2982350749296
24	58950	73	1.8760868339344
24	61232	74	1.9411429193835
24	63577	75	1.9914709441173
24	65824	76	2.3787322942209
24	68297	77	2.0820319303487
24	70876	78	1.9677409380341
24	73444	79	2.1309047668547
24	76002	80	1.9171909590573
24	78601	81	1.795266035835
24	81263	82	2.2414476022079
24	83981	83	0.973
24	86866	84	0.973
24	89755	85	0.973
24	92735	86	0.973
24	95829	87	0.973
24	98917	88	0.973
24	102118	89	0.973
24	105423	90	0.973
24	108724	91	0.973
24	112148	92	0.973
24	115540	93	0.973
24	119050	94	0.973
24	122512	95	0.973
24	126349	96	0.973
24	130183	97	0.973
24	134127	98	0.973
24	138186	99	0.973
24	142211	100	0.973
24	146138	101	0.973
24	150341	102	0.973
24	154523	103	0.973
25	910	16	2414.8631819435
25	1069	17	2414.8631819435
25	1256	18	2411.9415166449
25	1443	19	2407.4444889266
25	1657	20	2402.6655951609
25	1903	21	2396.3898098916
25	2149	22	2388.7757259257
25	2426	23	2379.8468471668
25	2739	24	2370.1278486471
25	3052	25	2360.4069784228
25	3400	26	2350.6817057964
25	3788	27	2341.2215783208
25	4176	28	2334.6395133431
25	4603	29	2337.2330844653
25	5074	30	2347.8569306821
25	5545	31	2358.1353602736
25	6059	32	2370.8220415901
25	6621	33	2384.1897997987
25	7192	34	2395.6810765733
25	7796	35	2404.716597343
25	8450	36	2412.613130096
25	9100	37	2418.9808111428
25	9797	38	2423.0272111293
25	10562	39	2428.2386964993
25	11313	40	2431.16680274
25	12115	41	2432.5503164834
25	12971	42	2434.2225197988
25	13821	43	2436.1773649128
25	14731	44	2438.1222559706
25	15692	45	2439.0418093801
25	16648	46	2440.0190358916
25	17663	47	2441.029853061
25	18737	48	2442.0410254926
25	19811	49	2443.0515698784
25	20936	50	2444.0628799318
25	22122	51	2445.0749399223
25	23315	52	2446.0854260665
25	24564	53	2447.0961287251
25	25851	54	2448.1076503119
25	27148	55	2449.1183981819
25	28520	56	2450.1301388218
25	29959	57	2450.13027782
25	31402	58	2449.0170971616
25	32918	59	2447.9037801087
25	34506	60	2446.7910567985
25	36094	61	2445.6776736877
25	37697	62	2444.5650401645
25	39393	63	2443.4523023982
25	41085	64	2442.3390496352
25	42838	65	2441.2262560629
25	44655	66	2440.1740051279
25	46470	67	2439.233178057
25	48379	68	2438.6097327381
25	50407	69	2436.3798238293
25	52435	70	2428.2917387362
25	54539	71	2416.0076813082
25	56750	72	2402.2802413439
25	58950	73	2388.3444165076
25	61232	74	2374.4314233137
25	63577	75	2360.5090156294
25	65824	76	2346.5697850239
25	68297	77	2332.644065113
25	70876	78	2318.6870834457
25	73444	79	2304.752973102
25	76002	80	2290.8407365712
25	78601	81	2276.9163215208
25	81263	82	2262.9747577456
25	83981	83	2249.0710032928
25	86866	84	2235.2623608632
25	89755	85	2221.4459402154
25	92735	86	2208.0199493505
25	95829	87	2195.8706712397
25	98917	88	2186.0545585979
25	102118	89	2178.477359973
25	105423	90	2173.4620316637
25	108724	91	2170.1809726639
25	112148	92	2168.249619487
25	115540	93	2167.2973815972
25	119050	94	2166.8714296533
25	122512	95	2166.701683499
25	126349	96	2166.701683499
25	130183	97	2166.701683499
25	134127	98	2166.701683499
25	138186	99	2166.701683499
25	142211	100	2166.701683499
25	146138	101	2166.701683499
25	150341	102	2166.701683499
25	154523	103	2166.701683499
26	910	16	1578.4556536013
26	1069	17	1578.4556536013
26	1256	18	1579.5284738513
26	1443	19	1581.267254049
26	1657	20	1586.1076150667
26	1903	21	1592.4641209589
26	2149	22	1600.1761390595
26	2426	23	1609.2198631521
26	2739	24	1619.063869711
26	3052	25	1628.9097720487
26	3400	26	1638.7601334136
26	3788	27	1648.8306643292
26	4176	28	1660.5786024798
26	4603	29	1673.2100853929
26	5074	30	1682.0380501365
26	5545	31	1691.3073953884
26	6059	32	1695.4416434895
26	6621	33	1697.2238443969
26	7192	34	1698.3671865333
26	7796	35	1699.2215553606
26	8450	36	1699.9682252649
26	9100	37	1700.5703320298
26	9797	38	1700.9207961904
26	10562	39	1701.3942757789
26	11313	40	1707.50082481
26	12115	41	1716.6050487235
26	12971	42	1727.6089968113
26	13821	43	1740.4728716509
26	14731	44	1754.2587602027
26	15692	45	1768.1774131199
26	16648	46	1782.1057600146
26	17663	47	1796.0064893775
26	18737	48	1809.9121042993
26	19811	49	1823.8090823507
26	20936	50	1837.716589842
26	22122	51	1851.6344104484
26	23315	52	1865.5305875633
26	24564	53	1879.4297421789
26	25851	54	1893.3401586711
26	27148	55	1907.239935033
26	28520	56	1921.1533639384
26	29959	57	1935.0516210282
26	31402	58	1948.9455619035
26	32918	59	1962.8412051592
26	34506	60	1976.7294377349
26	36094	61	1990.6259054793
26	37697	62	2004.5130173955
26	39393	63	2018.4014304029
26	41085	64	2032.2962712357
26	42838	65	2046.1853807755
26	44655	66	2060.0664846776
26	46470	67	2073.96694618
26	48379	68	2087.8871936491
26	50407	69	2101.5726007456
26	52435	70	2112.8053115718
26	54539	71	2119.3251805026
26	56750	72	2120.7332393965
26	58950	73	2120.2625449728
26	61232	74	2119.7926217075
26	63577	75	2119.3223804608
26	65824	76	2118.8515710039
26	68297	77	2118.3812178839
26	70876	78	2117.9098088704
26	73444	79	2117.4391723555
26	76002	80	2116.9692746466
26	78601	81	2116.4989655986
26	81263	82	2116.0280773379
26	83981	83	2115.5584661197
26	86866	84	2113.7872974202
26	89755	85	2111.8280221839
26	92735	86	2108.3433637749
26	95829	87	2104.2228943203
26	98917	88	2100.8937259587
26	102118	89	2098.3238929855
26	105423	90	2095.4331723247
26	108724	91	2093.5016646972
26	112148	92	2092.364707577
26	115540	93	2091.8041401664
26	119050	94	2091.553388983
26	122512	95	2091.4534621025
26	126349	96	2091.4534621025
26	130183	97	2091.4534621025
26	134127	98	2091.4534621025
26	138186	99	2091.4534621025
26	142211	100	2091.4534621025
26	146138	101	2091.4534621025
26	150341	102	2091.4534621025
26	154523	103	2091.4534621025
27	1069	17	3.8829045529919
27	1256	18	5.6713325865333
27	1443	19	7.7559437239751
27	1657	20	9.8513306527002
27	1903	21	11.782333207815
27	2149	22	13.537933059381
27	2426	23	13.861981254104
27	2739	24	13.888893493533
27	3052	25	13.869139206402
27	3400	26	13.796217133983
27	3788	27	13.802720147136
27	4176	28	13.83516021332
27	4603	29	13.841023635285
27	5074	30	13.83760661962
27	5545	31	13.865882674009
27	6059	32	12.933265459376
27	6621	33	10.364866658599
27	7192	34	8.1524999463756
27	7796	35	7.9879575850898
27	8450	36	5.1526541352902
27	9100	37	3.846452105611
27	9797	38	6.2548322995775
27	10562	39	8.1525704925786
[...]
125	89755	85	2361.0424930294
125	92735	86	2351.3143705851
125	95829	87	2341.7808254565
125	98917	88	2334.7902412693
125	102118	89	2336.5159669688
125	105423	90	2347.1870070492
125	108724	91	2357.4620158994
125	112148	92	2369.9290121216
125	115540	93	2383.4177142736
125	119050	94	2395.08462488
125	122512	95	2404.2493727478
125	126349	96	2412.306579251
125	130183	97	2418.7761067229
125	134127	98	2422.9377044966
125	138186	99	2428.3040210687
125	142211	100	2431.2230424362
125	146138	101	2432.6629113713
125	150341	102	2434.4022124573
125	154523	103	2436.42115611
126	65824	76	1578.4515295783
126	68297	77	1578.4515295783
126	70876	78	1579.5054586167
126	73444	79	1581.2644441742
126	76002	80	1586.137344664
126	78601	81	1592.2869233424
126	81263	82	1599.7592560146
126	83981	83	1608.6320317052
126	86866	84	1618.4395438563
126	89755	85	1628.2660833038
126	92735	86	1638.1193311419
126	95829	87	1648.1147409528
126	98917	88	1659.6708604163
126	102118	89	1672.6309698895
126	105423	90	1681.4338962249
126	108724	91	1690.7001565667
126	112148	92	1695.3081637882
126	115540	93	1697.1319489889
126	119050	94	1698.3107880428
126	122512	95	1699.1773761548
126	126349	96	1699.9392388351
126	130183	97	1700.5509758601
126	134127	98	1700.9156131782
126	138186	99	1701.4263936924
126	142211	100	1707.8709106082
126	146138	101	1717.3459803378
126	150341	102	1728.7914658729
126	154523	103	1742.0771416901
127	68297	77	3.8639698187199
127	70876	78	5.8402220716055
127	73444	79	7.627972078976
127	76002	80	9.5366508278467
127	78601	81	11.318279176078
127	81263	82	13.313576860165
127	83981	83	13.883047924715
127	86866	84	13.838161519538
127	89755	85	13.836086375362
127	92735	86	13.810350540315
127	95829	87	13.760817544444
127	98917	88	13.879313361307
127	102118	89	13.861675610698
127	105423	90	13.838809052561
127	108724	91	13.878023012646
127	112148	92	13.137913942703
127	115540	93	10.58483675155
127	119050	94	8.2593989125836
127	122512	95	8.0590220258412
127	126349	96	5.3120365589214
127	130183	97	4.0043597711073
127	134127	98	6.4361351063275
127	138186	99	8.4663186867777
127	142211	100	10.491534245409
127	146138	101	12.425332548026
127	150341	102	13.925616128196
127	154523	103	13.941589299154
128	70876	78	1.9762522528856
128	73444	79	1.7877500073705
128	76002	80	1.9086787488707
128	78601	81	1.7816283482313
128	81263	82	1.9952976840874
128	83981	83	0.56947106454918
128	86866	84	-0.04488640517695
128	89755	85	-0.0020751441759046
128	92735	86	-0.025735835046508
128	95829	87	-0.049532995871269
128	98917	88	0.11849581686314
128	102118	89	-0.017637750608847
128	105423	90	-0.022866558136883
128	108724	91	0.039213960084599
128	112148	92	-0.74010906994294
128	115540	93	-2.553077191153
128	119050	94	-2.3254378389664
128	122512	95	-0.20037688674237
128	126349	96	-2.7469854669198
128	130183	97	-1.3076767878141
128	134127	98	2.4317753352202
128	138186	99	2.0301835804502
128	142211	100	2.0252155586309
128	146138	101	1.9337983026169
128	150341	102	1.50028358017
128	154523	103	0.015973170958459
129	70876	78	4.1916963710062
129	73444	79	4.8054695157787
129	76002	80	6.0369506821873
129	78601	81	6.6496919539902
129	81263	82	8.3723035001656
129	83981	83	3.9322506787357
129	86866	84	1.8726548959943
129	89755	85	2.0152211408785
129	92735	86	1.9338799098883
129	95829	87	1.8502689855299
129	98917	88	2.4228849000861
129	102118	89	1.9658134628967
129	105423	90	1.9461530530465
129	108724	91	2.1575505446762
129	112148	92	0.973
129	115540	93	0.973
129	119050	94	0.973
129	122512	95	0.973
129	126349	96	0.973
129	130183	97	0.973
129	134127	98	5.2170557752171
129	138186	99	5.7168273224096
129	142211	100	6.843469287564
129	146138	101	7.6773804873937
129	150341	102	7.0663023030865
129	154523	103	2.0865389603573
130	73444	79	2414.8673328691
130	76002	80	2414.8673328691
130	78601	81	2411.8635825063
130	81263	82	2407.1630790912
130	83981	83	2402.1578261069
130	86866	84	2395.6983058939
130	89755	85	2387.8521273908
130	92735	86	2378.646665364
130	95829	87	2368.9384544055
130	98917	88	2359.2365716014
130	102118	89	2349.5135853903
130	105423	90	2340.219659071
130	108724	91	2334.3730418106
130	112148	92	2338.5022563378
130	115540	93	2349.0677170011
130	119050	94	2359.3445611212
130	122512	95	2372.4292617665
130	126349	96	2385.37479204
130	130183	97	2396.4894416363
130	134127	98	2405.2373077308
130	138186	99	2412.9828885545
130	142211	100	2419.2387333729
130	146138	101	2423.1781275847
130	150341	102	2428.3538747516
130	154523	103	2431.2022088107
131	73444	79	1578.4541294035
131	76002	80	1578.4541294035
131	78601	81	1579.5570908599
131	81263	82	1581.5522834435
131	83981	83	1586.6219151663
131	86866	84	1593.1645192429
131	89755	85	1601.1116171358
131	92735	86	1610.4354819749
131	95829	87	1620.26856222
131	98917	88	1630.095232917
131	102118	89	1639.943278458
131	105423	90	1650.1132769091
131	108724	91	1662.1833974551
131	112148	92	1674.2350180047
131	115540	93	1683.1299675666
131	119050	94	1692.3978829999
131	122512	95	1695.6818721462
131	126349	96	1697.3648849186
131	130183	97	1698.443622848
131	134127	98	1699.2707920047
131	138186	99	1700.0031883959
131	142211	100	1700.5947202994
131	146138	101	1700.9295352278
131	150341	102	1701.4509050865
131	154523	103	1707.7338147592
132	76002	80	4.1704515902617
132	78601	81	5.9746228737093
132	81263	82	7.9945436623402
132	83981	83	10.057992001626
132	86866	84	12.145971590782
132	89755	85	13.86064468944
132	92735	86	13.85825788979
132	95829	87	13.827617716186
132	98917	88	13.849301690762
132	102118	89	13.769667721505
132	105423	90	13.837743580854
132	108724	91	13.857432589568
132	112148	92	13.770960115858
132	115540	93	13.817479249171
132	119050	94	13.783044831536
132	122512	95	12.528629120543
132	126349	96	9.9923940483871
132	130183	97	7.8249831051111
132	134127	98	7.7952667940368
132	138186	99	5.0976007733958
132	142211	100	3.8159212634984
132	146138	101	6.2832923025141
132	150341	102	8.2734308113266
132	154523	103	10.157766636088
133	78601	81	1.8041712834476
133	81263	82	2.0199207886308
133	83981	83	2.0634483392863
133	86866	84	2.0879795891559
133	89755	85	1.7146730986575
133	92735	86	-0.0023867996502673
133	95829	87	-0.030640173603315
133	98917	88	0.021683974575717
133	102118	89	-0.07963396925712
133	105423	90	0.068075859348756
133	108724	91	0.01968900871463
133	112148	92	-0.086472473710309
133	115540	93	0.046519133313559
133	119050	94	-0.034434417635204
133	122512	95	-1.2544157109928
133	126349	96	-2.5362350721564
133	130183	97	-2.167410943276
133	134127	98	-0.02971631107426
133	138186	99	-2.6976660206411
133	142211	100	-1.2816795098974
133	146138	101	2.4673710390157
133	150341	102	1.9901385088125
133	154523	103	1.8843358247611
134	78601	81	4.0157150966975
134	81263	82	5.4346091914951
134	83981	83	6.6909423243753
134	86866	84	7.9733392362879
134	89755	85	7.7523510069583
134	92735	86	2.0164169068993
134	95829	87	1.9191761243163
134	98917	88	2.0958542136401
134	102118	89	1.7511652365807
134	105423	90	2.2493345033626
134	108724	91	2.0900589259386
134	112148	92	1.7285750569736
134	115540	93	2.1751665293395
134	119050	94	1.9023973909767
134	122512	95	0.973
134	126349	96	0.973
134	130183	97	0.973
134	134127	98	1.4739756701882
134	138186	99	0.973
134	142211	100	0.973
134	146138	101	5.1722962353331
134	150341	102	5.5295565646963
134	154523	103	6.3097262778379
135	81263	82	2414.8387556477
135	83981	83	2414.8387556477
135	86866	84	2411.6714162254
135	89755	85	2406.8302124324
135	92735	86	2401.716179507
135	95829	87	2395.2968856494
135	98917	88	2387.4702738748
135	102118	89	2378.1700925248
135	105423	90	2368.4680483462
135	108724	91	2358.742181363
135	112148	92	2349.0324153984
135	115540	93	2339.7793858299
135	119050	94	2334.2557627915
135	122512	95	2339.0524376995
135	126349	96	2349.605614705
135	130183	97	2359.8698385715
135	134127	98	2373.1234511622
135	138186	99	2385.9654164802
135	142211	100	2397.0007212469
135	146138	101	2405.6486964399
135	150341	102	2413.2370409266
135	154523	103	2419.3920244407
136	81263	82	1578.4646228096
136	83981	83	1578.4646228096
136	86866	84	1579.6276533157
136	89755	85	1581.8894315111
136	92735	86	1587.0692423275
136	95829	87	1593.571102649
136	98917	88	1601.4983821409
136	102118	89	1610.9181846054
136	105423	90	1620.7450187523
136	108724	91	1630.5959821185
136	112148	92	1640.4306373717
136	115540	93	1650.6768951835
136	119050	94	1662.8896972192
136	122512	95	1674.6793225408
136	126349	96	1683.6150571881
136	130183	97	1692.8715913612
136	134127	98	1695.7856315374
136	138186	99	1697.4351824075
136	142211	100	1698.4919677498
136	146138	101	1699.3096915549
136	150341	102	1700.0272201998
136	154523	103	1700.6092149932
137	83981	83	4.2771137984432
137	86866	84	6.2739829191202
137	89755	85	8.1159472125452
137	92735	86	9.98546164031
137	95829	87	12.115084982511
137	98917	88	13.875564762696
137	102118	89	13.82894771527
137	105423	90	13.79944241426
137	108724	91	13.819560560661
137	112148	92	13.810266563944
137	115540	93	13.868187819265
137	119050	94	13.811083678037
137	122512	95	13.83531864427
137	126349	96	13.806191873029
137	130183	97	13.792824448481
137	134127	98	12.371377923302
137	138186	99	9.9402519593156
137	142211	100	7.7276544966782
137	146138	101	7.711265166946
137	150341	102	5.0414125322581
137	154523	103	4.2080371320805
138	86866	84	1.996869120677
138	89755	85	1.841964293425
138	92735	86	1.8695144277648
138	95829	87	2.1296233422006
138	98917	88	1.7604797801856
138	102118	89	-0.046617047425826
138	105423	90	-0.029505301010795
138	108724	91	0.020118146401366
138	112148	92	-0.0092939967173162
138	115540	93	0.057921255321707
138	119050	94	-0.057104141227899
138	122512	95	0.024234966232907
138	126349	96	-0.029126771241428
138	130183	97	-0.013367424547988
138	134127	98	-1.4214465251784
138	138186	99	-2.4311259639869
138	142211	100	-2.2125974626374
138	146138	101	-0.016389329732136
138	150341	102	-2.669852634688
138	154523	103	-0.83337540017753
139	86866	84	4.4547967856712
139	89755	85	5.1536754347392
139	92735	86	6.1826546934687
139	95829	87	8.0766361987606
139	98917	88	7.913209559506
139	102118	89	1.866053596952
139	105423	90	1.9203092577333
139	108724	91	2.0874715488702
139	112148	92	1.9885948879979
139	115540	93	2.2189826961342
139	119050	94	1.8295409802144
139	122512	95	2.1028698717337
139	126349	96	1.9222027046218
139	130183	97	1.9733314214756
139	134127	98	0.973
139	138186	99	0.973
139	142211	100	0.973
139	146138	101	1.4938926379723
139	150341	102	0.973
139	154523	103	0.973
140	89755	85	2414.8452166276
140	92735	86	2414.8452166276
140	95829	87	2411.9102588951
140	98917	88	2407.2267573988
140	102118	89	2402.2276537673
140	105423	90	2395.8670392528
140	108724	91	2388.1607863191
140	112148	92	2379.0650585272
140	115540	93	2369.3445997874
140	119050	94	2359.6312152285
140	122512	95	2349.921842127
140	126349	96	2340.5669513729
140	130183	97	2334.4675816854
140	134127	98	2338.0552204924
140	138186	99	2348.6532814606
140	142211	100	2358.9300710616
140	146138	101	2371.8637372599
140	150341	102	2384.9875356571
140	154523	103	2396.2848416351
141	89755	85	1578.4622503715
141	92735	86	1578.4622503715
141	95829	87	1579.5399515331
141	98917	88	1581.48778609
141	102118	89	1586.5511893658
141	105423	90	1592.9936155966
141	108724	91	1600.7989881635
141	112148	92	1610.0117073404
141	115540	93	1619.857192901
141	119050	94	1629.6955132913
141	122512	95	1639.5297706276
141	126349	96	1649.6686887098
141	130183	97	1661.6140416423
141	134127	98	1673.8740096763
141	138186	99	1682.7562192157
141	142211	100	1692.0240854826
141	146138	101	1695.597344093
141	150341	102	1697.3187927669
141	154523	103	1698.4242765522
142	92735	86	3.9816791077314
142	95829	87	5.9391318060534
142	98917	88	8.0194012818515
142	102118	89	9.8209640097485
142	105423	90	11.913520006075
142	108724	91	13.719468968248
142	112148	92	13.888838232881
142	115540	93	13.874304266106
142	119050	94	13.808869560715
142	122512	95	13.870366969923
142	126349	96	13.806838066967
142	130183	97	13.834345862239
142	134127	98	13.846529236077
142	138186	99	13.832399557307
142	142211	100	13.785795172462
142	146138	101	12.566283816831
142	150341	102	10.20627092666
142	154523	103	8.1756933134724
143	95829	87	1.957452698322
143	98917	88	2.0802694757981
143	102118	89	1.801562727897
143	105423	90	2.0925559963263
143	108724	91	1.8059489621734
143	112148	92	0.16936926463325
143	115540	93	-0.014533966775053
143	119050	94	-0.065434705391526
143	122512	95	0.061497409208679
143	126349	96	-0.063528902956751
143	130183	97	0.027507795272395
143	134127	98	0.012183373838198
143	138186	99	-0.014129678769969
143	142211	100	-0.046604384845123
143	146138	101	-1.2195113556314
143	150341	102	-2.3600128901709
143	154523	103	-2.0305776131875
144	95829	87	4.2176186878184
144	98917	88	5.5649851390904
144	102118	89	5.935301677058
144	105423	90	7.8489720681338
144	108724	91	7.981555266048
144	112148	92	2.5944093469592
144	115540	93	1.9774202311149
144	119050	94	1.8016240191949
144	122512	95	2.2311886243942
144	126349	96	1.8077921745127
144	130183	97	2.1136775273511
144	134127	98	2.063855006451
144	138186	99	1.9746644867101
144	142211	100	1.8622188581053
144	146138	101	0.973
144	150341	102	0.973
144	154523	103	0.973
145	98917	88	2414.8623052536
145	102118	89	2414.8623052536
145	105423	90	2411.9272458358
145	108724	91	2407.3488204068
145	112148	92	2402.5019346784
145	115540	93	2396.3948447852
145	119050	94	2388.9868639527
145	122512	95	2380.1687294241
145	126349	96	2370.4690349699
145	130183	97	2360.7583948281
145	134127	98	2351.0476016508
145	138186	99	2341.5582096161
145	142211	100	2334.727281208
145	146138	101	2336.8093315505
145	150341	102	2347.4618802805
145	154523	103	2357.7280662814
146	98917	88	1578.4559755176
146	102118	89	1578.4559755176
146	105423	90	1579.5337140178
146	108724	91	1581.3641530797
146	112148	92	1586.2733805897
146	115540	93	1592.4590213057
146	119050	94	1599.9622853259
146	122512	95	1608.8938407693
146	126349	96	1618.7182949698
146	130183	97	1628.5538356435
146	134127	98	1638.3895313209
146	138186	99	1648.3997238772
146	142211	100	1660.0500303367
146	146138	101	1672.8678794308
146	150341	102	1681.6817837898
146	154523	103	1690.9400874646
147	102118	89	3.980747943297
147	105423	90	5.8029736454785
147	108724	91	7.7656323544821
147	112148	92	9.5478283833177
147	115540	93	11.36028209412
147	119050	94	13.501358550286
147	122512	95	13.864871154497
147	126349	96	13.792937388739
147	130183	97	13.773100494561
147	134127	98	13.859420782151
147	138186	99	13.827720260876
147	142211	100	13.836643651014
147	146138	101	13.870632483733
147	150341	102	13.787488383809
147	154523	103	13.769475590666
148	105423	90	1.8222257021815
148	108724	91	1.9626587090036
148	112148	92	1.7821960288356
148	115540	93	1.8124537108024
148	119050	94	2.1410764561663
148	122512	95	0.363512604211
148	126349	96	-0.071933765758294
148	130183	97	-0.019836894178297
148	134127	98	0.086320287589915
148	138186	99	-0.03170052127447
148	142211	100	0.0089233901374968
148	146138	101	0.033988832719624
148	150341	102	-0.083144099924247
148	154523	103	-0.01801279314328
149	105423	90	3.9564003957734
149	108724	91	5.2010256829928
149	112148	92	5.751873420476
149	115540	93	6.7556443451086
149	119050	94	8.9553541094216
149	122512	95	3.2397129718249
149	126349	96	1.7786622080188
149	130183	97	1.9499308374375
149	134127	98	2.312826587885
149	138186	99	1.9156521596459
149	142211	100	2.0519533670045
149	146138	101	2.1392632382675
149	150341	102	1.7409571060458
149	154523	103	1.9556359584974
150	108724	91	2414.845506624
150	112148	92	2414.845506624
150	115540	93	2411.9470400341
150	119050	94	2407.4052149424
150	122512	95	2402.6172615953
150	126349	96	2396.5072147672
150	130183	97	2389.1137941492
150	134127	98	2380.3196734011
150	138186	99	2370.6283380509
150	142211	100	2360.9249899165
150	146138	101	2351.2049351593
150	150341	102	2341.6901003949
150	154523	103	2334.7663477504
151	108724	91	1578.4621438868
151	112148	92	1578.4621438868
151	115540	93	1579.5264456915
151	119050	94	1581.307033184
151	122512	95	1586.1565703107
151	126349	96	1592.3452059943
151	130183	97	1599.8337225234
151	134127	98	1608.7409553155
151	138186	99	1618.5569428951
151	142211	100	1628.3850977691
151	146138	101	1638.2301741512
151	150341	102	1648.2308831522
151	154523	103	1659.8147564596
152	112148	92	3.8876543190141
152	115540	93	5.6815064557126
152	119050	94	7.6263236996202
152	122512	95	9.5140949931947
152	126349	96	11.414379161661
152	130183	97	13.429077111459
152	134127	98	13.854748596547
152	138186	99	13.793862027968
152	142211	100	13.862864477076
152	146138	101	13.875401839674
152	150341	102	13.776639586997
152	154523	103	13.80554535253
153	115540	93	1.7938521366985
153	119050	94	1.9448172439076
153	122512	95	1.8877712935745
153	126349	96	1.9002841684665
153	130183	97	2.0146979497978
153	134127	98	0.4256714850877
153	138186	99	-0.060886568578425
153	142211	100	0.069002449107357
153	146138	101	0.012537362598813
153	150341	102	-0.098762252677698
153	154523	103	0.028905765532983
154	115540	93	3.8572373953792
154	119050	94	5.0933340090992
154	122512	95	5.976981280511
154	126349	96	7.0254374966058
154	130183	97	8.5019256927906
154	134127	98	3.4453471249281
154	138186	99	1.815463963684
154	142211	100	2.2553896783193
154	146138	101	2.0680536545455
154	150341	102	1.6882251315469
154	154523	103	2.1152240709591
155	119050	94	2414.8504779165
155	122512	95	2414.8504779165
155	126349	96	2411.9178896138
155	130183	97	2407.2822712956
155	134127	98	2402.3776586967
155	138186	99	2396.0800031156
155	142211	100	2388.4093536879
155	146138	101	2379.4609739473
155	150341	102	2369.7444677408
155	154523	103	2360.0215693542
156	119050	94	1578.4603184536
156	122512	95	1578.4603184536
156	126349	96	1579.5371495737
156	130183	97	1581.431558161
156	134127	98	1586.3992550373
156	138186	99	1592.7779125422
156	142211	100	1600.547223663
156	146138	101	1609.6106995633
156	150341	102	1619.4521817518
156	154523	103	1629.3001383394
157	122512	95	4.0080398529608
157	126349	96	5.8531947620426
157	130183	97	7.88692430225
157	134127	98	9.8237406897781
157	138186	99	11.729973225307
157	142211	100	13.695814111587
157	146138	101	13.850988583153
157	150341	102	13.830712710652
157	154523	103	13.825400281644
158	126349	96	1.8451549090818
158	130183	97	2.0337295402074
158	134127	98	1.9368163875281
158	138186	99	1.9062325355294
158	142211	100	1.9658408862795
158	146138	101	0.15517447156568
158	150341	102	-0.020275872501079
158	154523	103	-0.0053124290076081
159	126349	96	4.0136951366799
159	130183	97	5.4013947298338
159	134127	98	6.2569313838148
159	138186	99	7.2137227816494
159	142211	100	8.49664083295
159	146138	101	2.5416371428878
159	150341	102	1.9540129177343
159	154523	103	2.0033581037909
160	130183	97	2414.8473130239
160	134127	98	2414.8473130239
160	138186	99	2411.9996676465
160	142211	100	2407.432984666
160	146138	101	2402.6515540272
160	150341	102	2396.4732752522
160	154523	103	2388.9316058698
161	130183	97	1578.4614805859
161	134127	98	1578.4614805859
161	138186	99	1579.5071211066
161	142211	100	1581.2789062792
161	146138	101	1586.1218368011
161	150341	102	1592.3795820475
161	154523	103	1600.0182541506
162	134127	98	3.8661089195336
162	138186	99	5.8194736745885
162	142211	100	7.7279645211786
162	146138	101	9.6205435142365
162	150341	102	11.612935707891
162	154523	103	13.416842596505
163	138186	99	1.9533647550549
163	142211	100	1.9084908465901
163	146138	101	1.8925789930578
163	150341	102	1.9923921936541
163	154523	103	1.8039068886149
164	138186	99	4.1485184983129
164	142211	100	5.079880825535
164	146138	101	6.0443926558387
164	150341	102	7.3910276833989
164	154523	103	7.8131999485326
165	142211	100	2414.8809052034
165	146138	101	2414.8809052034
165	150341	102	2412.028639576
165	154523	103	2407.4174819946
166	142211	100	1578.4491457129
166	146138	101	1578.4491457129
166	150341	102	1579.4964827653
166	154523	103	1581.2946083499
167	146138	101	3.9474300705446
167	150341	102	5.7753123274902
167	154523	103	7.8615997579288
168	150341	102	1.8278822569456
168	154523	103	2.0862874304387
169	150341	102	3.9505345274235
169	154523	103	5.486904190485
170	154523	103	2414.821550188
171	154523	103	1578.4709405648
